# generated using pymatgen
data_CdCN
_symmetry_space_group_name_H-M   'P 1'
_cell_length_a   8.97300000
_cell_length_b   9.24980000
_cell_length_c   10.00610000
_cell_angle_alpha   99.91500000
_cell_angle_beta   99.60100000
_cell_angle_gamma   103.33700000
_symmetry_Int_Tables_number   1
_chemical_formula_structural   CdCN
_chemical_formula_sum   'Cd4 C4 N4'
_cell_volume   777.32890624
_cell_formula_units_Z   4
loop_
 _symmetry_equiv_pos_site_id
 _symmetry_equiv_pos_as_xyz
  1  'x, y, z'
loop_
 _atom_site_type_symbol
 _atom_site_label
 _atom_site_symmetry_multiplicity
 _atom_site_fract_x
 _atom_site_fract_y
 _atom_site_fract_z
 _atom_site_occupancy
  C  C0  1  0.87610000  0.82100000  0.43150000  1.0
  Cd  Cd1  1  1.11599000  0.90377000  0.75534000  1.0
  C  C2  1  0.12390000  0.17900000  0.56850000  1.0
  Cd  Cd3  1  -0.11599000  0.09623000  0.24466000  1.0
  C  C4  1  0.82160000  0.98120000  0.89880000  1.0
  Cd  Cd5  1  1.11599000  0.90377000  0.75534000  1.0
  C  C6  1  0.17840000  0.01880000  0.10120000  1.0
  Cd  Cd7  1  -0.11599000  0.09623000  0.24466000  1.0
  N  N8  1  0.95940000  0.81680000  0.53110000  1.0
  N  N9  1  0.04060000  0.18320000  0.46890000  1.0
  N  N10  1  0.91250000  0.96590000  0.83190000  1.0
  N  N11  1  0.08750000  0.03410000  0.16810000  1.0
