# generated using pymatgen
data_CoH16CS2N5O6
_symmetry_space_group_name_H-M   'P 1'
_cell_length_a   6.48560000
_cell_length_b   18.07200000
_cell_length_c   9.78540000
_cell_angle_alpha   90.00000000
_cell_angle_beta   98.28000000
_cell_angle_gamma   90.00000000
_symmetry_Int_Tables_number   1
_chemical_formula_structural   CoH16CS2N5O6
_chemical_formula_sum   'Co4 H64 C4 S8 N20 O24'
_cell_volume   1134.96943745
_cell_formula_units_Z   4
loop_
 _symmetry_equiv_pos_site_id
 _symmetry_equiv_pos_as_xyz
  1  'x, y, z'
loop_
 _atom_site_type_symbol
 _atom_site_label
 _atom_site_symmetry_multiplicity
 _atom_site_fract_x
 _atom_site_fract_y
 _atom_site_fract_z
 _atom_site_occupancy
  Co  Co0  1  0.26748000  0.12456400  0.76388000  1
  Co  Co1  1  0.76748000  0.37543600  0.26388000  1
  Co  Co2  1  0.73252000  0.87543600  0.23612000  1
  Co  Co3  1  0.23252000  0.62456400  0.73612000  1
  H  H4  1  0.55530000  0.12870000  0.95440000  1
  H  H5  1  0.05530000  0.37130000  0.45440000  1
  H  H6  1  0.44470000  0.87130000  0.04560000  1
  H  H7  1  0.94470000  0.62870000  0.54560000  1
  H  H8  1  0.62580000  0.08590000  0.84180000  1
  H  H9  1  0.12580000  0.41410000  0.34180000  1
  H  H10  1  0.37420000  0.91410000  0.15820000  1
  H  H11  1  0.87420000  0.58590000  0.65820000  1
  H  H12  1  0.62560000  0.17110000  0.83660000  1
  H  H13  1  0.12560000  0.32890000  0.33660000  1
  H  H14  1  0.37440000  0.82890000  0.16340000  1
  H  H15  1  0.87440000  0.67110000  0.66340000  1
  H  H16  1  0.42460000  0.01450000  0.67900000  1
  H  H17  1  0.92460000  0.48550000  0.17900000  1
  H  H18  1  0.57540000  0.98550000  0.32100000  1
  H  H19  1  0.07540000  0.51450000  0.82100000  1
  H  H20  1  0.24970000  0.02540000  0.59450000  1
  H  H21  1  0.74970000  0.47460000  0.09450000  1
  H  H22  1  0.75030000  0.97460000  0.40550000  1
  H  H23  1  0.25030000  0.52540000  0.90550000  1
  H  H24  1  0.41210000  0.06700000  0.57330000  1
  H  H25  1  0.91210000  0.43300000  0.07330000  1
  H  H26  1  0.58790000  0.93300000  0.42670000  1
  H  H27  1  0.08790000  0.56700000  0.92670000  1
  H  H28  1  0.41640000  0.24080000  0.68400000  1
  H  H29  1  0.91640000  0.25920000  0.18400000  1
  H  H30  1  0.58360000  0.75920000  0.31600000  1
  H  H31  1  0.08360000  0.74080000  0.81600000  1
  H  H32  1  0.21650000  0.23060000  0.60800000  1
  H  H33  1  0.71650000  0.26940000  0.10800000  1
  H  H34  1  0.78350000  0.76940000  0.39200000  1
  H  H35  1  0.28350000  0.73060000  0.89200000  1
  H  H36  1  0.38870000  0.19790000  0.57970000  1
  H  H37  1  0.88870000  0.30210000  0.07970000  1
  H  H38  1  0.61130000  0.80210000  0.42030000  1
  H  H39  1  0.11130000  0.69790000  0.92030000  1
  H  H40  1  0.09860000  0.22680000  0.85550000  1
  H  H41  1  0.59860000  0.27320000  0.35550000  1
  H  H42  1  0.90140000  0.77320000  0.14450000  1
  H  H43  1  0.40140000  0.72680000  0.64450000  1
  H  H44  1  0.10380000  0.18090000  0.94800000  1
  H  H45  1  0.60380000  0.31910000  0.44800000  1
  H  H46  1  0.89620000  0.81910000  0.05200000  1
  H  H47  1  0.39620000  0.68090000  0.55200000  1
  H  H48  1  0.27910000  0.22650000  0.93100000  1
  H  H49  1  0.77910000  0.27350000  0.43100000  1
  H  H50  1  0.72090000  0.77350000  0.06900000  1
  H  H51  1  0.22090000  0.72650000  0.56900000  1
  H  H52  1  0.23490000  0.05110000  0.97510000  1
  H  H53  1  0.73490000  0.44890000  0.47510000  1
  H  H54  1  0.76510000  0.94890000  0.02490000  1
  H  H55  1  0.26510000  0.55110000  0.52490000  1
  H  H56  1  0.24960000  0.00000000  0.87080000  1
  H  H57  1  0.74960000  0.50000000  0.37080000  1
  H  H58  1  0.75040000  0.00000000  0.12920000  1
  H  H59  1  0.25040000  0.50000000  0.62920000  1
  H  H60  1  0.91490000  0.08320000  0.66380000  1
  H  H61  1  0.41490000  0.41680000  0.16380000  1
  H  H62  1  0.08510000  0.91680000  0.33620000  1
  H  H63  1  0.58510000  0.58320000  0.83620000  1
  H  H64  1  0.88970000  0.15650000  0.68180000  1
  H  H65  1  0.38970000  0.34350000  0.18180000  1
  H  H66  1  0.11030000  0.84350000  0.31820000  1
  H  H67  1  0.61030000  0.65650000  0.81820000  1
  C  C68  1  0.55760000  0.12764000  0.85999000  1
  C  C69  1  0.05760000  0.37236000  0.35999000  1
  C  C70  1  0.44240000  0.87236000  0.14001000  1
  C  C71  1  0.94240000  0.62764000  0.64001000  1
  S  S72  1  0.40477000  0.13293000  0.26283000  1
  S  S73  1  0.90477000  0.36707000  0.76283000  1
  S  S74  1  0.59523000  0.86707000  0.73717000  1
  S  S75  1  0.09523000  0.63293000  0.23717000  1
  S  S76  1  0.08306000  0.11762000  0.27772000  1
  S  S77  1  0.58306000  0.38238000  0.77772000  1
  S  S78  1  0.91694000  0.88238000  0.72228000  1
  S  S79  1  0.41694000  0.61762000  0.22228000  1
  N  N80  1  0.34670000  0.05006000  0.63384000  1
  N  N81  1  0.84670000  0.44994000  0.13384000  1
  N  N82  1  0.65330000  0.94994000  0.36616000  1
  N  N83  1  0.15330000  0.55006000  0.86616000  1
  N  N84  1  0.32630000  0.20707000  0.64298000  1
  N  N85  1  0.82630000  0.29293000  0.14298000  1
  N  N86  1  0.67370000  0.79293000  0.35702000  1
  N  N87  1  0.17370000  0.70707000  0.85702000  1
  N  N88  1  0.18600000  0.19768000  0.89563000  1
  N  N89  1  0.68600000  0.30232000  0.39563000  1
  N  N90  1  0.81400000  0.80232000  0.10437000  1
  N  N91  1  0.31400000  0.69768000  0.60437000  1
  N  N92  1  0.20940000  0.04390000  0.88954000  1
  N  N93  1  0.70940000  0.45610000  0.38954000  1
  N  N94  1  0.79060000  0.95610000  0.11046000  1
  N  N95  1  0.29060000  0.54390000  0.61046000  1
  N  N96  1  0.96210000  0.12141000  0.65651000  1
  N  N97  1  0.46210000  0.37859000  0.15651000  1
  N  N98  1  0.03790000  0.87859000  0.34349000  1
  N  N99  1  0.53790000  0.62141000  0.84349000  1
  O  O100  1  0.41360000  0.20393000  0.19342000  1
  O  O101  1  0.91360000  0.29607000  0.69342000  1
  O  O102  1  0.58640000  0.79607000  0.80658000  1
  O  O103  1  0.08640000  0.70393000  0.30658000  1
  O  O104  1  0.51160000  0.13249000  0.40420000  1
  O  O105  1  0.01160000  0.36751000  0.90420000  1
  O  O106  1  0.48840000  0.86751000  0.59580000  1
  O  O107  1  0.98840000  0.63249000  0.09580000  1
  O  O108  1  0.45520000  0.07019000  0.18134000  1
  O  O109  1  0.95520000  0.42981000  0.68134000  1
  O  O110  1  0.54480000  0.92981000  0.81866000  1
  O  O111  1  0.04480000  0.57019000  0.31866000  1
  O  O112  1  0.98400000  0.11865000  0.13479000  1
  O  O113  1  0.48400000  0.38135000  0.63479000  1
  O  O114  1  0.01600000  0.88135000  0.86521000  1
  O  O115  1  0.51600000  0.61865000  0.36521000  1
  O  O116  1  0.02980000  0.17989000  0.36001000  1
  O  O117  1  0.52980000  0.32011000  0.86001000  1
  O  O118  1  0.97020000  0.82011000  0.63999000  1
  O  O119  1  0.47020000  0.67989000  0.13999000  1
  O  O120  1  0.07300000  0.04648000  0.34663000  1
  O  O121  1  0.57300000  0.45352000  0.84663000  1
  O  O122  1  0.92700000  0.95352000  0.65337000  1
  O  O123  1  0.42700000  0.54648000  0.15337000  1
