# generated using pymatgen
data_ZnH16C25S2N3O4
_symmetry_space_group_name_H-M   'P 1'
_cell_length_a   9.99405000
_cell_length_b   10.94900000
_cell_length_c   12.10300000
_cell_angle_alpha   104.47500000
_cell_angle_beta   101.15600000
_cell_angle_gamma   109.87700000
_symmetry_Int_Tables_number   1
_chemical_formula_structural   ZnH16C25S2N3O4
_chemical_formula_sum   'Zn2 H32 C50 S4 N6 O8'
_cell_volume   1148.15884103
_cell_formula_units_Z   2
loop_
 _symmetry_equiv_pos_site_id
 _symmetry_equiv_pos_as_xyz
  1  'x, y, z'
loop_
 _atom_site_type_symbol
 _atom_site_label
 _atom_site_symmetry_multiplicity
 _atom_site_fract_x
 _atom_site_fract_y
 _atom_site_fract_z
 _atom_site_occupancy
  Zn  Zn0  1  0.60042000  0.01590000  0.11307000  1.0
  Zn  Zn1  1  0.39958000  0.98410000  0.88693000  1.0
  H  H2  1  0.41722000  0.59889000  0.09027000  1.0
  H  H3  1  0.58278000  0.40111000  0.90973000  1.0
  H  H4  1  0.27733000  0.34917000  0.06566000  1.0
  H  H5  1  0.72267000  0.65083000  0.93434000  1.0
  H  H6  1  0.02099000  0.21573000  0.92052000  1.0
  H  H7  1  0.97901000  0.78427000  0.07949000  1.0
  H  H8  1  0.05114000  0.57328000  0.82099000  1.0
  H  H9  1  0.94886000  0.42672000  0.17901000  1.0
  H  H10  1  0.52625000  0.19664000  0.55874000  1.0
  H  H11  1  0.47375000  0.80336000  0.44126000  1.0
  H  H12  1  0.57832000  0.01192000  0.65402000  1.0
  H  H13  1  0.42168000  0.98808000  0.34598000  1.0
  H  H14  1  0.09036000  0.08955000  0.03117000  1.0
  H  H15  1  0.90964000  0.91045000  0.96883000  1.0
  H  H16  1  0.93410000  0.18929000  0.12991000  1.0
  H  H17  1  0.06590000  0.81071000  0.87009000  1.0
  H  H18  1  0.02895000  0.31927000  0.34760000  1.0
  H  H19  1  0.97105000  0.68073000  0.65240000  1.0
  H  H20  1  0.42572000  0.23922000  0.37031000  1.0
  H  H21  1  0.57429000  0.76077000  0.62969000  1.0
  H  H22  1  0.55129000  0.47477000  0.75480000  1.0
  H  H23  1  0.44871000  0.52522000  0.24521000  1.0
  H  H24  1  0.36492000  0.59974000  0.78629000  1.0
  H  H25  1  0.63509000  0.40027000  0.21372000  1.0
  H  H26  1  0.71877000  0.16359000  0.38203000  1.0
  H  H27  1  0.28123000  0.83641000  0.61797000  1.0
  H  H28  1  0.89513000  0.16387000  0.55562000  1.0
  H  H29  1  0.10487000  0.83613000  0.44438000  1.0
  H  H30  1  0.95649000  0.83883000  0.30890000  1.0
  H  H31  1  0.04350000  0.16116000  0.69111000  1.0
  H  H32  1  0.77589000  0.85224000  0.14705000  1.0
  H  H33  1  0.22410000  0.14776000  0.85296000  1.0
  C  C34  1  0.32716000  0.74676000  0.97133000  1.0
  C  C35  1  0.67284000  0.25324000  0.02867000  1.0
  C  C36  1  0.24045000  0.59949000  0.95829000  1.0
  C  C37  1  0.75955000  0.40051000  0.04171000  1.0
  C  C38  1  0.30557000  0.53706000  0.02700000  1.0
  C  C39  1  0.69443000  0.46294000  0.97300000  1.0
  C  C40  1  0.22758000  0.39880000  0.01269000  1.0
  C  C41  1  0.77243000  0.60119000  0.98731000  1.0
  C  C42  1  0.08480000  0.32307000  0.93118000  1.0
  C  C43  1  0.91520000  0.67693000  0.06882000  1.0
  C  C44  1  0.01902000  0.38398000  0.86009000  1.0
  C  C45  1  0.98098000  0.61602000  0.13991000  1.0
  C  C46  1  0.09851000  0.52277000  0.87456000  1.0
  C  C47  1  0.90149000  0.47723000  0.12544000  1.0
  C  C48  1  0.87018000  0.30064000  0.77363000  1.0
  C  C49  1  0.12982000  0.69937000  0.22638000  1.0
  C  C50  1  0.62700000  0.20886000  0.62218000  1.0
  C  C51  1  0.37300000  0.79114000  0.37782000  1.0
  C  C52  1  0.65575000  0.11779000  0.67304000  1.0
  C  C53  1  0.34425000  0.88221000  0.32696000  1.0
  C  C54  1  0.35655000  0.09777000  0.13196000  1.0
  C  C55  1  0.64345000  0.90223000  0.86804000  1.0
  C  C56  1  0.26458000  0.15508000  0.19489000  1.0
  C  C57  1  0.73542000  0.84492000  0.80511000  1.0
  C  C58  1  0.12701000  0.14272000  0.12744000  1.0
  C  C59  1  0.87300000  0.85728000  0.87256000  1.0
  C  C60  1  0.04172000  0.20006000  0.18237000  1.0
  C  C61  1  0.95828000  0.79994000  0.81763000  1.0
  C  C62  1  0.09520000  0.27275000  0.30514000  1.0
  C  C63  1  0.90480000  0.72725000  0.69486000  1.0
  C  C64  1  0.23349000  0.28696000  0.37426000  1.0
  C  C65  1  0.76651000  0.71304000  0.62574000  1.0
  C  C66  1  0.31702000  0.22613000  0.31808000  1.0
  C  C67  1  0.68298000  0.77387000  0.68193000  1.0
  C  C68  1  0.29541000  0.36729000  0.50212000  1.0
  C  C69  1  0.70460000  0.63271000  0.49789000  1.0
  C  C70  1  0.45234000  0.45973000  0.68724000  1.0
  C  C71  1  0.54766000  0.54028000  0.31276000  1.0
  C  C72  1  0.35846000  0.52427000  0.70585000  1.0
  C  C73  1  0.64154000  0.47573000  0.29415000  1.0
  C  C74  1  0.77448000  0.09327000  0.37037000  1.0
  C  C75  1  0.22552000  0.90673000  0.62963000  1.0
  C  C76  1  0.87427000  0.09244000  0.46732000  1.0
  C  C77  1  0.12573000  0.90756000  0.53268000  1.0
  C  C78  1  0.94525000  0.00125000  0.44967000  1.0
  C  C79  1  0.05475000  0.99875000  0.55034000  1.0
  C  C80  1  0.90731000  0.91262000  0.33162000  1.0
  C  C81  1  0.09269000  0.08737000  0.66838000  1.0
  C  C82  1  0.80613000  0.91926000  0.23938000  1.0
  C  C83  1  0.19387000  0.08073000  0.76062000  1.0
  S  S84  1  0.77677000  0.36626000  0.68247000  1.0
  S  S85  1  0.22323000  0.63374000  0.31753000  1.0
  S  S86  1  0.21900000  0.47336000  0.57535000  1.0
  S  S87  1  0.78100000  0.52664000  0.42465000  1.0
  N  N88  1  0.79246000  0.16952000  0.75723000  1.0
  N  N89  1  0.20755000  0.83048000  0.24277000  1.0
  N  N90  1  0.41646000  0.37200000  0.57313000  1.0
  N  N91  1  0.58354000  0.62800000  0.42687000  1.0
  N  N92  1  0.74102000  0.00872000  0.25761000  1.0
  N  N93  1  0.25898000  0.99129000  0.74240000  1.0
  O  O94  1  0.44104000  0.81764000  0.06323000  1.0
  O  O95  1  0.55896000  0.18236000  0.93677000  1.0
  O  O96  1  0.28193000  0.78757000  0.88706000  1.0
  O  O97  1  0.71808000  0.21243000  0.11294000  1.0
  O  O98  1  0.47343000  0.09705000  0.19603000  1.0
  O  O99  1  0.52657000  0.90295000  0.80397000  1.0
  O  O100  1  0.31142000  0.05632000  0.01781000  1.0
  O  O101  1  0.68858000  0.94368000  0.98219000  1.0
