# generated using pymatgen
data_LaH2C7(NO3)2
_symmetry_space_group_name_H-M   'P 1'
_cell_length_a   11.04170000
_cell_length_b   12.13500000
_cell_length_c   19.65090000
_cell_angle_alpha   90.00000000
_cell_angle_beta   90.00000000
_cell_angle_gamma   90.00000000
_symmetry_Int_Tables_number   1
_chemical_formula_structural   LaH2C7(NO3)2
_chemical_formula_sum   'La8 H16 C56 N16 O48'
_cell_volume   2633.04432160
_cell_formula_units_Z   8
loop_
 _symmetry_equiv_pos_site_id
 _symmetry_equiv_pos_as_xyz
  1  'x, y, z'
loop_
 _atom_site_type_symbol
 _atom_site_label
 _atom_site_symmetry_multiplicity
 _atom_site_fract_x
 _atom_site_fract_y
 _atom_site_fract_z
 _atom_site_occupancy
  La  La0  1  0.63583000  0.15959000  0.12136000  1
  La  La1  1  0.11641000  0.98193000  0.33513000  1
  La  La2  1  0.36417000  0.84041000  0.62136000  1
  La  La3  1  0.88359000  0.01807000  0.83513000  1
  La  La4  1  0.86417000  0.65959000  0.12136000  1
  La  La5  1  0.38359000  0.48193000  0.33513000  1
  La  La6  1  0.13583000  0.34041000  0.62136000  1
  La  La7  1  0.61641000  0.51807000  0.83513000  1
  H  H8  1  0.84500000  0.01250000  0.23220000  1
  H  H9  1  0.73370000  0.26780000  0.38800000  1
  H  H10  1  0.37030000  0.09980000  0.23160000  1
  H  H11  1  0.50760000  0.74740000  0.22420000  1
  H  H12  1  0.15500000  0.98750000  0.73220000  1
  H  H13  1  0.26630000  0.73220000  0.88800000  1
  H  H14  1  0.62970000  0.90020000  0.73160000  1
  H  H15  1  0.49240000  0.25260000  0.72420000  1
  H  H16  1  0.65500000  0.51250000  0.23220000  1
  H  H17  1  0.76630000  0.76780000  0.38800000  1
  H  H18  1  0.12970000  0.59980000  0.23160000  1
  H  H19  1  0.99240000  0.24740000  0.22420000  1
  H  H20  1  0.34500000  0.48750000  0.73220000  1
  H  H21  1  0.23370000  0.23220000  0.88800000  1
  H  H22  1  0.87030000  0.40020000  0.73160000  1
  H  H23  1  0.00760000  0.75260000  0.72420000  1
  C  C24  1  0.82370000  0.06730000  0.26300000  1
  C  C25  1  0.86250000  0.15760000  0.36270000  1
  C  C26  1  0.75870000  0.21800000  0.35490000  1
  C  C27  1  0.69270000  0.20220000  0.29630000  1
  C  C28  1  0.58650000  0.27580000  0.27750000  1
  C  C29  1  0.94730000  0.17600000  0.42230000  1
  C  C30  1  0.39830000  0.02750000  0.23060000  1
  C  C31  1  0.37340000  0.84990000  0.26060000  1
  C  C32  1  0.48040000  0.81980000  0.22640000  1
  C  C33  1  0.54130000  0.90590000  0.19650000  1
  C  C34  1  0.66130000  0.88460000  0.15810000  1
  C  C35  1  0.29580000  0.76100000  0.29380000  1
  C  C36  1  0.17800000  0.88720000  0.49120000  1
  C  C37  1  0.29920000  0.93840000  0.46800000  1
  C  C38  1  0.17630000  0.93270000  0.76300000  1
  C  C39  1  0.13750000  0.84240000  0.86270000  1
  C  C40  1  0.24130000  0.78200000  0.85490000  1
  C  C41  1  0.30730000  0.79780000  0.79630000  1
  C  C42  1  0.41350000  0.72420000  0.77750000  1
  C  C43  1  0.05270000  0.82400000  0.92230000  1
  C  C44  1  0.60170000  0.97250000  0.73060000  1
  C  C45  1  0.62660000  0.15010000  0.76060000  1
  C  C46  1  0.51960000  0.18020000  0.72640000  1
  C  C47  1  0.45870000  0.09410000  0.69650000  1
  C  C48  1  0.33870000  0.11540000  0.65810000  1
  C  C49  1  0.70420000  0.23900000  0.79380000  1
  C  C50  1  0.82200000  0.11280000  0.99120000  1
  C  C51  1  0.70080000  0.06160000  0.96800000  1
  C  C52  1  0.67630000  0.56730000  0.26300000  1
  C  C53  1  0.63750000  0.65760000  0.36270000  1
  C  C54  1  0.74130000  0.71800000  0.35490000  1
  C  C55  1  0.80730000  0.70220000  0.29630000  1
  C  C56  1  0.91350000  0.77580000  0.27750000  1
  C  C57  1  0.55270000  0.67600000  0.42230000  1
  C  C58  1  0.10170000  0.52750000  0.23060000  1
  C  C59  1  0.12660000  0.34990000  0.26060000  1
  C  C60  1  0.01960000  0.31980000  0.22640000  1
  C  C61  1  0.95870000  0.40590000  0.19650000  1
  C  C62  1  0.83870000  0.38460000  0.15810000  1
  C  C63  1  0.20420000  0.26100000  0.29380000  1
  C  C64  1  0.32200000  0.38720000  0.49120000  1
  C  C65  1  0.20080000  0.43840000  0.46800000  1
  C  C66  1  0.32370000  0.43270000  0.76300000  1
  C  C67  1  0.36250000  0.34240000  0.86270000  1
  C  C68  1  0.25870000  0.28200000  0.85490000  1
  C  C69  1  0.19270000  0.29780000  0.79630000  1
  C  C70  1  0.08650000  0.22420000  0.77750000  1
  C  C71  1  0.44730000  0.32400000  0.92230000  1
  C  C72  1  0.89830000  0.47250000  0.73060000  1
  C  C73  1  0.87340000  0.65010000  0.76060000  1
  C  C74  1  0.98040000  0.68020000  0.72640000  1
  C  C75  1  0.04130000  0.59410000  0.69650000  1
  C  C76  1  0.16130000  0.61540000  0.65810000  1
  C  C77  1  0.79580000  0.73900000  0.79380000  1
  C  C78  1  0.67800000  0.61280000  0.99120000  1
  C  C79  1  0.79920000  0.56160000  0.96800000  1
  N  N80  1  0.72510000  0.12640000  0.24970000  1
  N  N81  1  0.89340000  0.08080000  0.31700000  1
  N  N82  1  0.50000000  0.00890000  0.19630000  1
  N  N83  1  0.33280000  0.95310000  0.26360000  1
  N  N84  1  0.27490000  0.87360000  0.74970000  1
  N  N85  1  0.10660000  0.91920000  0.81700000  1
  N  N86  1  0.50000000  0.99110000  0.69630000  1
  N  N87  1  0.66720000  0.04690000  0.76360000  1
  N  N88  1  0.77490000  0.62640000  0.24970000  1
  N  N89  1  0.60660000  0.58080000  0.31700000  1
  N  N90  1  0.00000000  0.50890000  0.19630000  1
  N  N91  1  0.16720000  0.45310000  0.26360000  1
  N  N92  1  0.22510000  0.37360000  0.74970000  1
  N  N93  1  0.39340000  0.41920000  0.81700000  1
  N  N94  1  0.00000000  0.49110000  0.69630000  1
  N  N95  1  0.83280000  0.54690000  0.76360000  1
  O  O96  1  0.54310000  0.26390000  0.21900000  1
  O  O97  1  0.55300000  0.34370000  0.32170000  1
  O  O98  1  0.03850000  0.11550000  0.42610000  1
  O  O99  1  0.91730000  0.24930000  0.46310000  1
  O  O100  1  0.70980000  0.96550000  0.12860000  1
  O  O101  1  0.70270000  0.78970000  0.16270000  1
  O  O102  1  0.20080000  0.79180000  0.32220000  1
  O  O103  1  0.33290000  0.66280000  0.28940000  1
  O  O104  1  0.09120000  0.88530000  0.44830000  1
  O  O105  1  0.17370000  0.85020000  0.55050000  1
  O  O106  1  0.29590000  0.99430000  0.41310000  1
  O  O107  1  0.38730000  0.92460000  0.50450000  1
  O  O108  1  0.45690000  0.73610000  0.71900000  1
  O  O109  1  0.44700000  0.65630000  0.82170000  1
  O  O110  1  0.96150000  0.88450000  0.92610000  1
  O  O111  1  0.08270000  0.75070000  0.96310000  1
  O  O112  1  0.29020000  0.03450000  0.62860000  1
  O  O113  1  0.29730000  0.21030000  0.66270000  1
  O  O114  1  0.79920000  0.20820000  0.82220000  1
  O  O115  1  0.66710000  0.33720000  0.78940000  1
  O  O116  1  0.90880000  0.11470000  0.94830000  1
  O  O117  1  0.82630000  0.14980000  0.05050000  1
  O  O118  1  0.70410000  0.00570000  0.91310000  1
  O  O119  1  0.61270000  0.07540000  0.00450000  1
  O  O120  1  0.95690000  0.76390000  0.21900000  1
  O  O121  1  0.94700000  0.84370000  0.32170000  1
  O  O122  1  0.46150000  0.61550000  0.42610000  1
  O  O123  1  0.58270000  0.74930000  0.46310000  1
  O  O124  1  0.79020000  0.46550000  0.12860000  1
  O  O125  1  0.79730000  0.28970000  0.16270000  1
  O  O126  1  0.29920000  0.29180000  0.32220000  1
  O  O127  1  0.16710000  0.16280000  0.28940000  1
  O  O128  1  0.40880000  0.38530000  0.44830000  1
  O  O129  1  0.32630000  0.35020000  0.55050000  1
  O  O130  1  0.20410000  0.49430000  0.41310000  1
  O  O131  1  0.11270000  0.42460000  0.50450000  1
  O  O132  1  0.04310000  0.23610000  0.71900000  1
  O  O133  1  0.05300000  0.15630000  0.82170000  1
  O  O134  1  0.53850000  0.38450000  0.92610000  1
  O  O135  1  0.41730000  0.25070000  0.96310000  1
  O  O136  1  0.20980000  0.53450000  0.62860000  1
  O  O137  1  0.20270000  0.71030000  0.66270000  1
  O  O138  1  0.70080000  0.70820000  0.82220000  1
  O  O139  1  0.83290000  0.83720000  0.78940000  1
  O  O140  1  0.59120000  0.61470000  0.94830000  1
  O  O141  1  0.67370000  0.64980000  0.05050000  1
  O  O142  1  0.79590000  0.50570000  0.91310000  1
  O  O143  1  0.88730000  0.57540000  0.00450000  1
