# generated using pymatgen
data_CeH2C7(NO3)2
_symmetry_space_group_name_H-M   'P 1'
_cell_length_a   11.03600000
_cell_length_b   12.05600000
_cell_length_c   19.56100000
_cell_angle_alpha   90.00000000
_cell_angle_beta   90.00000000
_cell_angle_gamma   90.00000000
_symmetry_Int_Tables_number   1
_chemical_formula_structural   CeH2C7(NO3)2
_chemical_formula_sum   'Ce8 H16 C56 N16 O48'
_cell_volume   2602.59136298
_cell_formula_units_Z   8
loop_
 _symmetry_equiv_pos_site_id
 _symmetry_equiv_pos_as_xyz
  1  'x, y, z'
loop_
 _atom_site_type_symbol
 _atom_site_label
 _atom_site_symmetry_multiplicity
 _atom_site_fract_x
 _atom_site_fract_y
 _atom_site_fract_z
 _atom_site_occupancy
  Ce  Ce0  1  0.36431000  0.84017000  0.87879000  1
  Ce  Ce1  1  0.88269000  0.02071000  0.66444000  1
  Ce  Ce2  1  0.63569000  0.15983000  0.37879000  1
  Ce  Ce3  1  0.11731000  0.97929000  0.16444000  1
  Ce  Ce4  1  0.13569000  0.34017000  0.87879000  1
  Ce  Ce5  1  0.61731000  0.52071000  0.66444000  1
  Ce  Ce6  1  0.86431000  0.65983000  0.37879000  1
  Ce  Ce7  1  0.38269000  0.47929000  0.16444000  1
  H  H8  1  0.15340000  0.98990000  0.76990000  1
  H  H9  1  0.26860000  0.73580000  0.61160000  1
  H  H10  1  0.63010000  0.89930000  0.76770000  1
  H  H11  1  0.49310000  0.25320000  0.77800000  1
  H  H12  1  0.84660000  0.01010000  0.26990000  1
  H  H13  1  0.73140000  0.26420000  0.11160000  1
  H  H14  1  0.36990000  0.10070000  0.26770000  1
  H  H15  1  0.50690000  0.74680000  0.27800000  1
  H  H16  1  0.34660000  0.48990000  0.76990000  1
  H  H17  1  0.23140000  0.23580000  0.61160000  1
  H  H18  1  0.86990000  0.39930000  0.76770000  1
  H  H19  1  0.00690000  0.75320000  0.77800000  1
  H  H20  1  0.65340000  0.51010000  0.26990000  1
  H  H21  1  0.76860000  0.76420000  0.11160000  1
  H  H22  1  0.13010000  0.60070000  0.26770000  1
  H  H23  1  0.99310000  0.24680000  0.27800000  1
  C  C24  1  0.17410000  0.93520000  0.73850000  1
  C  C25  1  0.13730000  0.84750000  0.63680000  1
  C  C26  1  0.24270000  0.78550000  0.64490000  1
  C  C27  1  0.30710000  0.80100000  0.70460000  1
  C  C28  1  0.41450000  0.72590000  0.72240000  1
  C  C29  1  0.05440000  0.82720000  0.57600000  1
  C  C30  1  0.60170000  0.97190000  0.76900000  1
  C  C31  1  0.62530000  0.15280000  0.73980000  1
  C  C32  1  0.52010000  0.18030000  0.77480000  1
  C  C33  1  0.45820000  0.09450000  0.80420000  1
  C  C34  1  0.34000000  0.11360000  0.84250000  1
  C  C35  1  0.70300000  0.24270000  0.70550000  1
  C  C36  1  0.82150000  0.11590000  0.51020000  1
  C  C37  1  0.70020000  0.06340000  0.53280000  1
  C  C38  1  0.82590000  0.06480000  0.23850000  1
  C  C39  1  0.86270000  0.15250000  0.13680000  1
  C  C40  1  0.75730000  0.21450000  0.14490000  1
  C  C41  1  0.69290000  0.19900000  0.20460000  1
  C  C42  1  0.58550000  0.27410000  0.22240000  1
  C  C43  1  0.94560000  0.17280000  0.07600000  1
  C  C44  1  0.39830000  0.02810000  0.26900000  1
  C  C45  1  0.37470000  0.84720000  0.23980000  1
  C  C46  1  0.47990000  0.81970000  0.27480000  1
  C  C47  1  0.54180000  0.90550000  0.30420000  1
  C  C48  1  0.66000000  0.88640000  0.34250000  1
  C  C49  1  0.29700000  0.75730000  0.20550000  1
  C  C50  1  0.17850000  0.88410000  0.01020000  1
  C  C51  1  0.29980000  0.93660000  0.03280000  1
  C  C52  1  0.32590000  0.43520000  0.73850000  1
  C  C53  1  0.36270000  0.34750000  0.63680000  1
  C  C54  1  0.25730000  0.28550000  0.64490000  1
  C  C55  1  0.19290000  0.30100000  0.70460000  1
  C  C56  1  0.08550000  0.22590000  0.72240000  1
  C  C57  1  0.44560000  0.32720000  0.57600000  1
  C  C58  1  0.89830000  0.47190000  0.76900000  1
  C  C59  1  0.87470000  0.65280000  0.73980000  1
  C  C60  1  0.97990000  0.68030000  0.77480000  1
  C  C61  1  0.04180000  0.59450000  0.80420000  1
  C  C62  1  0.16000000  0.61360000  0.84250000  1
  C  C63  1  0.79700000  0.74270000  0.70550000  1
  C  C64  1  0.67850000  0.61590000  0.51020000  1
  C  C65  1  0.79980000  0.56340000  0.53280000  1
  C  C66  1  0.67410000  0.56480000  0.23850000  1
  C  C67  1  0.63730000  0.65250000  0.13680000  1
  C  C68  1  0.74270000  0.71450000  0.14490000  1
  C  C69  1  0.80710000  0.69900000  0.20460000  1
  C  C70  1  0.91450000  0.77410000  0.22240000  1
  C  C71  1  0.55440000  0.67280000  0.07600000  1
  C  C72  1  0.10170000  0.52810000  0.26900000  1
  C  C73  1  0.12530000  0.34720000  0.23980000  1
  C  C74  1  0.02010000  0.31970000  0.27480000  1
  C  C75  1  0.95820000  0.40550000  0.30420000  1
  C  C76  1  0.84000000  0.38640000  0.34250000  1
  C  C77  1  0.20300000  0.25730000  0.20550000  1
  C  C78  1  0.32150000  0.38410000  0.01020000  1
  C  C79  1  0.20020000  0.43660000  0.03280000  1
  N  N80  1  0.27420000  0.87520000  0.75100000  1
  N  N81  1  0.10170000  0.92200000  0.68370000  1
  N  N82  1  0.49950000  0.99050000  0.80410000  1
  N  N83  1  0.66600000  0.04730000  0.73600000  1
  N  N84  1  0.72580000  0.12480000  0.25100000  1
  N  N85  1  0.89830000  0.07800000  0.18370000  1
  N  N86  1  0.50050000  0.00950000  0.30410000  1
  N  N87  1  0.33400000  0.95270000  0.23600000  1
  N  N88  1  0.22580000  0.37520000  0.75100000  1
  N  N89  1  0.39830000  0.42200000  0.68370000  1
  N  N90  1  0.00050000  0.49050000  0.80410000  1
  N  N91  1  0.83400000  0.54730000  0.73600000  1
  N  N92  1  0.77420000  0.62480000  0.25100000  1
  N  N93  1  0.60170000  0.57800000  0.18370000  1
  N  N94  1  0.99950000  0.50950000  0.30410000  1
  N  N95  1  0.16600000  0.45270000  0.23600000  1
  O  O96  1  0.45570000  0.73620000  0.78160000  1
  O  O97  1  0.44940000  0.65980000  0.67740000  1
  O  O98  1  0.95950000  0.88880000  0.57360000  1
  O  O99  1  0.08600000  0.75830000  0.53530000  1
  O  O100  1  0.29120000  0.03370000  0.87330000  1
  O  O101  1  0.29590000  0.21030000  0.83620000  1
  O  O102  1  0.79910000  0.21180000  0.67710000  1
  O  O103  1  0.66590000  0.33910000  0.70890000  1
  O  O104  1  0.82570000  0.15150000  0.44910000  1
  O  O105  1  0.90740000  0.11770000  0.55220000  1
  O  O106  1  0.61080000  0.07780000  0.49530000  1
  O  O107  1  0.70490000  0.00930000  0.58780000  1
  O  O108  1  0.54430000  0.26380000  0.28160000  1
  O  O109  1  0.55060000  0.34020000  0.17740000  1
  O  O110  1  0.04050000  0.11120000  0.07360000  1
  O  O111  1  0.91400000  0.24170000  0.03530000  1
  O  O112  1  0.70880000  0.96630000  0.37330000  1
  O  O113  1  0.70410000  0.78970000  0.33620000  1
  O  O114  1  0.20090000  0.78820000  0.17710000  1
  O  O115  1  0.33410000  0.66090000  0.20890000  1
  O  O116  1  0.17430000  0.84850000  0.94910000  1
  O  O117  1  0.09260000  0.88230000  0.05220000  1
  O  O118  1  0.38920000  0.92220000  0.99530000  1
  O  O119  1  0.29510000  0.99070000  0.08780000  1
  O  O120  1  0.04430000  0.23620000  0.78160000  1
  O  O121  1  0.05060000  0.15980000  0.67740000  1
  O  O122  1  0.54050000  0.38880000  0.57360000  1
  O  O123  1  0.41400000  0.25830000  0.53530000  1
  O  O124  1  0.20880000  0.53370000  0.87330000  1
  O  O125  1  0.20410000  0.71030000  0.83620000  1
  O  O126  1  0.70090000  0.71180000  0.67710000  1
  O  O127  1  0.83410000  0.83910000  0.70890000  1
  O  O128  1  0.67430000  0.65150000  0.44910000  1
  O  O129  1  0.59260000  0.61770000  0.55220000  1
  O  O130  1  0.88920000  0.57780000  0.49530000  1
  O  O131  1  0.79510000  0.50930000  0.58780000  1
  O  O132  1  0.95570000  0.76380000  0.28160000  1
  O  O133  1  0.94940000  0.84020000  0.17740000  1
  O  O134  1  0.45950000  0.61120000  0.07360000  1
  O  O135  1  0.58600000  0.74170000  0.03530000  1
  O  O136  1  0.79120000  0.46630000  0.37330000  1
  O  O137  1  0.79590000  0.28970000  0.33620000  1
  O  O138  1  0.29910000  0.28820000  0.17710000  1
  O  O139  1  0.16590000  0.16090000  0.20890000  1
  O  O140  1  0.32570000  0.34850000  0.94910000  1
  O  O141  1  0.40740000  0.38230000  0.05220000  1
  O  O142  1  0.11080000  0.42220000  0.99530000  1
  O  O143  1  0.20490000  0.49070000  0.08780000  1
