data_image0
_cell_length_a       7.88427
_cell_length_b       10.3604
_cell_length_c       11.3898
_cell_angle_alpha    112.197
_cell_angle_beta     96.011
_cell_angle_gamma    99.3035

_symmetry_space_group_name_H-M    "P 1"
_symmetry_int_tables_number       1

loop_
  _symmetry_equiv_pos_as_xyz
  'x, y, z'

loop_
  _atom_site_label
  _atom_site_occupancy
  _atom_site_fract_x
  _atom_site_fract_y
  _atom_site_fract_z
  _atom_site_thermal_displace_type
  _atom_site_B_iso_or_equiv
  _atom_site_type_symbol
  Cu1      1.0000 0.51292  0.48776  0.24756  Biso   1.000  Cu
  Cu2      1.0000 0.48707  0.51224  0.75245  Biso   1.000  Cu
  H1       1.0000 0.49403  0.17176  0.18665  Biso   1.000  H
  H2       1.0000 0.50596  0.82823  0.81335  Biso   1.000  H
  H3       1.0000 0.70388  0.00734  0.14676  Biso   1.000  H
  H4       1.0000 0.29612  0.99265  0.85324  Biso   1.000  H
  H5       1.0000 0.11461  0.37310  0.21622  Biso   1.000  H
  H6       1.0000 0.88538  0.62689  0.78377  Biso   1.000  H
  H7       1.0000 0.88687  0.52163  0.25141  Biso   1.000  H
  H8       1.0000 0.11312  0.47837  0.74859  Biso   1.000  H
  H9       1.0000 0.30439  0.59522  0.07977  Biso   1.000  H
  H10      1.0000 0.69562  0.40477  0.92023  Biso   1.000  H
  H11      1.0000 0.08908  0.75400  0.10552  Biso   1.000  H
  H12      1.0000 0.91093  0.24600  0.89447  Biso   1.000  H
  H13      1.0000 0.15260  0.82331  0.50832  Biso   1.000  H
  H14      1.0000 0.84740  0.17671  0.49167  Biso   1.000  H
  H15      1.0000 0.36021  0.65717  0.46452  Biso   1.000  H
  H16      1.0000 0.63979  0.34285  0.53549  Biso   1.000  H
  C1       1.0000 0.33476  0.35378  0.41608  Biso   1.000  C
  C2       1.0000 0.66523  0.64621  0.58392  Biso   1.000  C
  C3       1.0000 0.66406  0.64659  0.08996  Biso   1.000  C
  C4       1.0000 0.33594  0.35341  0.91004  Biso   1.000  C
  C5       1.0000 0.63257  0.21150  0.19188  Biso   1.000  C
  C6       1.0000 0.36743  0.78850  0.80812  Biso   1.000  C
  C7       1.0000 0.74897  0.12080  0.17034  Biso   1.000  C
  C8       1.0000 0.25103  0.87920  0.82966  Biso   1.000  C
  C9       1.0000 0.92553  0.17914  0.17905  Biso   1.000  C
  C10      1.0000 0.07447  0.82085  0.82095  Biso   1.000  C
  C11      1.0000 0.97854  0.32546  0.20861  Biso   1.000  C
  C12      1.0000 0.02145  0.67453  0.79139  Biso   1.000  C
  C13      1.0000 0.85352  0.40770  0.22850  Biso   1.000  C
  C14      1.0000 0.14648  0.59230  0.77151  Biso   1.000  C
  C15      1.0000 0.05364  0.09360  0.15732  Biso   1.000  C
  C16      1.0000 0.94636  0.90640  0.84267  Biso   1.000  C
  C17      1.0000 0.26567  0.64671  0.17237  Biso   1.000  C
  C18      1.0000 0.73434  0.35329  0.82762  Biso   1.000  C
  C19      1.0000 0.14692  0.73485  0.18680  Biso   1.000  C
  C20      1.0000 0.85309  0.26515  0.81319  Biso   1.000  C
  C21      1.0000 0.10431  0.79935  0.30921  Biso   1.000  C
  C22      1.0000 0.89569  0.20066  0.69078  Biso   1.000  C
  C23      1.0000 0.18173  0.77292  0.41218  Biso   1.000  C
  C24      1.0000 0.81828  0.22709  0.58781  Biso   1.000  C
  C25      1.0000 0.29774  0.68233  0.38845  Biso   1.000  C
  C26      1.0000 0.70226  0.31768  0.61155  Biso   1.000  C
  C27      1.0000 0.98146  0.88930  0.32906  Biso   1.000  C
  C28      1.0000 0.01855  0.11070  0.67094  Biso   1.000  C
  S1       1.0000 0.25484  0.29609  0.51603  Biso   1.000  S
  S2       1.0000 0.74516  0.70391  0.48397  Biso   1.000  S
  S3       1.0000 0.70787  0.73145  0.99996  Biso   1.000  S
  S4       1.0000 0.29212  0.26854  0.00004  Biso   1.000  S
  N1       1.0000 0.39153  0.39149  0.33884  Biso   1.000  N
  N2       1.0000 0.60847  0.60851  0.66116  Biso   1.000  N
  N3       1.0000 0.63834  0.58258  0.15598  Biso   1.000  N
  N4       1.0000 0.36166  0.41742  0.84403  Biso   1.000  N
  N5       1.0000 0.68449  0.35176  0.21998  Biso   1.000  N
  N6       1.0000 0.31550  0.64823  0.78002  Biso   1.000  N
  N7       1.0000 0.16319  0.02862  0.13910  Biso   1.000  N
  N8       1.0000 0.83681  0.97138  0.86089  Biso   1.000  N
  N9       1.0000 0.33853  0.62052  0.27105  Biso   1.000  N
  N10      1.0000 0.66147  0.37948  0.72895  Biso   1.000  N
  N11      1.0000 0.87888  0.96081  0.34535  Biso   1.000  N
  N12      1.0000 0.12113  0.03919  0.65465  Biso   1.000  N
