# generated using pymatgen
data_CuH8C14(SN3)2
_symmetry_space_group_name_H-M   'P 1'
_cell_length_a   7.88427000
_cell_length_b   10.36040000
_cell_length_c   11.38980000
_cell_angle_alpha   112.19700000
_cell_angle_beta   96.01100000
_cell_angle_gamma   99.30350000
_symmetry_Int_Tables_number   1
_chemical_formula_structural   CuH8C14(SN3)2
_chemical_formula_sum   'Cu2 H16 C28 S4 N12'
_cell_volume   835.97462423
_cell_formula_units_Z   2
loop_
 _symmetry_equiv_pos_site_id
 _symmetry_equiv_pos_as_xyz
  1  'x, y, z'
loop_
 _atom_site_type_symbol
 _atom_site_label
 _atom_site_symmetry_multiplicity
 _atom_site_fract_x
 _atom_site_fract_y
 _atom_site_fract_z
 _atom_site_occupancy
  Cu  Cu0  1  0.51292000  0.48776000  0.24756000  1.0
  Cu  Cu1  1  0.48707000  0.51224000  0.75245000  1.0
  H  H2  1  0.49403000  0.17176000  0.18665000  1.0
  H  H3  1  0.50596000  0.82823000  0.81335000  1.0
  H  H4  1  0.70388000  0.00734000  0.14676000  1.0
  H  H5  1  0.29612000  0.99265000  0.85324000  1.0
  H  H6  1  0.11461000  0.37310000  0.21622000  1.0
  H  H7  1  0.88538000  0.62689000  0.78377000  1.0
  H  H8  1  0.88687000  0.52163000  0.25141000  1.0
  H  H9  1  0.11312000  0.47837000  0.74859000  1.0
  H  H10  1  0.30439000  0.59522000  0.07977000  1.0
  H  H11  1  0.69562000  0.40477000  0.92023000  1.0
  H  H12  1  0.08908000  0.75400000  0.10552000  1.0
  H  H13  1  0.91093000  0.24600000  0.89447000  1.0
  H  H14  1  0.15260000  0.82331000  0.50832000  1.0
  H  H15  1  0.84740000  0.17671000  0.49167000  1.0
  H  H16  1  0.36021000  0.65717000  0.46452000  1.0
  H  H17  1  0.63979000  0.34285000  0.53549000  1.0
  C  C18  1  0.33476000  0.35378000  0.41608000  1.0
  C  C19  1  0.66523000  0.64621000  0.58392000  1.0
  C  C20  1  0.66406000  0.64659000  0.08996000  1.0
  C  C21  1  0.33594000  0.35341000  0.91004000  1.0
  C  C22  1  0.63257000  0.21150000  0.19188000  1.0
  C  C23  1  0.36743000  0.78850000  0.80812000  1.0
  C  C24  1  0.74897000  0.12080000  0.17034000  1.0
  C  C25  1  0.25103000  0.87920000  0.82966000  1.0
  C  C26  1  0.92553000  0.17914000  0.17905000  1.0
  C  C27  1  0.07447000  0.82085000  0.82095000  1.0
  C  C28  1  0.97854000  0.32546000  0.20861000  1.0
  C  C29  1  0.02145000  0.67453000  0.79139000  1.0
  C  C30  1  0.85352000  0.40770000  0.22850000  1.0
  C  C31  1  0.14648000  0.59230000  0.77151000  1.0
  C  C32  1  0.05364000  0.09360000  0.15732000  1.0
  C  C33  1  0.94636000  0.90640000  0.84267000  1.0
  C  C34  1  0.26567000  0.64671000  0.17237000  1.0
  C  C35  1  0.73434000  0.35329000  0.82762000  1.0
  C  C36  1  0.14692000  0.73485000  0.18680000  1.0
  C  C37  1  0.85309000  0.26515000  0.81319000  1.0
  C  C38  1  0.10431000  0.79935000  0.30921000  1.0
  C  C39  1  0.89569000  0.20066000  0.69078000  1.0
  C  C40  1  0.18173000  0.77292000  0.41218000  1.0
  C  C41  1  0.81828000  0.22709000  0.58781000  1.0
  C  C42  1  0.29774000  0.68233000  0.38845000  1.0
  C  C43  1  0.70226000  0.31768000  0.61155000  1.0
  C  C44  1  0.98146000  0.88930000  0.32906000  1.0
  C  C45  1  0.01855000  0.11070000  0.67094000  1.0
  S  S46  1  0.25484000  0.29609000  0.51603000  1.0
  S  S47  1  0.74516000  0.70391000  0.48397000  1.0
  S  S48  1  0.70787000  0.73145000  0.99996000  1.0
  S  S49  1  0.29212000  0.26854000  0.00004000  1.0
  N  N50  1  0.39153000  0.39149000  0.33884000  1.0
  N  N51  1  0.60847000  0.60851000  0.66116000  1.0
  N  N52  1  0.63834000  0.58258000  0.15598000  1.0
  N  N53  1  0.36166000  0.41742000  0.84403000  1.0
  N  N54  1  0.68449000  0.35176000  0.21998000  1.0
  N  N55  1  0.31550000  0.64823000  0.78002000  1.0
  N  N56  1  0.16319000  0.02862000  0.13910000  1.0
  N  N57  1  0.83681000  0.97138000  0.86089000  1.0
  N  N58  1  0.33853000  0.62052000  0.27105000  1.0
  N  N59  1  0.66147000  0.37948000  0.72895000  1.0
  N  N60  1  0.87888000  0.96081000  0.34535000  1.0
  N  N61  1  0.12113000  0.03919000  0.65465000  1.0
