# generated using pymatgen
data_PuU3P8H24(C3O5)8
_symmetry_space_group_name_H-M   'P 1'
_cell_length_a   7.21040000
_cell_length_b   9.16770000
_cell_length_c   19.29800000
_cell_angle_alpha   92.00200000
_cell_angle_beta   90.00000000
_cell_angle_gamma   90.00000000
_symmetry_Int_Tables_number   1
_chemical_formula_structural   PuU3P8H24(C3O5)8
_chemical_formula_sum   'Pu1 U3 P8 H24 C24 O40'
_cell_volume   1274.87287993
_cell_formula_units_Z   1
loop_
 _symmetry_equiv_pos_site_id
 _symmetry_equiv_pos_as_xyz
  1  'x, y, z'
loop_
 _atom_site_type_symbol
 _atom_site_label
 _atom_site_symmetry_multiplicity
 _atom_site_fract_x
 _atom_site_fract_y
 _atom_site_fract_z
 _atom_site_occupancy
  Pu  Pu0  1  0.12289300  0.76482800  0.89904200  0.25
  U  U1  1  0.12289300  0.76482800  0.89904200  0.75
  Pu  Pu2  1  0.62289300  0.73517200  0.60095800  0.25
  U  U3  1  0.62289300  0.73517200  0.60095800  0.75
  Pu  Pu4  1  0.87710700  0.23517200  0.10095800  0.25
  U  U5  1  0.87710700  0.23517200  0.10095800  0.75
  Pu  Pu6  1  0.37710700  0.26482800  0.39904200  0.25
  U  U7  1  0.37710700  0.26482800  0.39904200  0.75
  P  P8  1  0.18980000  0.09905000  0.23389000  1
  P  P9  1  0.68980000  0.40095000  0.26611000  1
  P  P10  1  0.81020000  0.90095000  0.76611000  1
  P  P11  1  0.31020000  0.59905000  0.73389000  1
  P  P12  1  0.19276000  0.91218000  0.07499000  1
  P  P13  1  0.69276000  0.58782000  0.42501000  1
  P  P14  1  0.80724000  0.08782000  0.92501000  1
  P  P15  1  0.30724000  0.41218000  0.57499000  1
  H  H16  1  0.17510000  0.87470000  0.32620000  1
  H  H17  1  0.67510000  0.62530000  0.17380000  1
  H  H18  1  0.82490000  0.12530000  0.67380000  1
  H  H19  1  0.32490000  0.37470000  0.82620000  1
  H  H20  1  0.16630000  0.62340000  0.11140000  1
  H  H21  1  0.66630000  0.87660000  0.38860000  1
  H  H22  1  0.83370000  0.37660000  0.88860000  1
  H  H23  1  0.33370000  0.12340000  0.61140000  1
  H  H24  1  0.16750000  0.49380000  0.21380000  1
  H  H25  1  0.66750000  0.00620000  0.28620000  1
  H  H26  1  0.83250000  0.50620000  0.78620000  1
  H  H27  1  0.33250000  0.99380000  0.71380000  1
  H  H28  1  0.17330000  0.62060000  0.32110000  1
  H  H29  1  0.67330000  0.87940000  0.17890000  1
  H  H30  1  0.82670000  0.37940000  0.67890000  1
  H  H31  1  0.32670000  0.12060000  0.82110000  1
  H  H32  1  0.59500000  0.77400000  0.03330000  1
  H  H33  1  0.09500000  0.72600000  0.46670000  1
  H  H34  1  0.40500000  0.22600000  0.96670000  1
  H  H35  1  0.90500000  0.27400000  0.53330000  1
  H  H36  1  0.71800000  0.71800000  0.99800000  1
  H  H37  1  0.21800000  0.78200000  0.50200000  1
  H  H38  1  0.28200000  0.28200000  0.00200000  1
  H  H39  1  0.78200000  0.21800000  0.49800000  1
  C  C40  1  0.17750000  0.90340000  0.22187000  1
  C  C41  1  0.67750000  0.59660000  0.27813000  1
  C  C42  1  0.82250000  0.09660000  0.77813000  1
  C  C43  1  0.32250000  0.40340000  0.72187000  1
  C  C44  1  0.17390000  0.82710000  0.15720000  1
  C  C45  1  0.67390000  0.67290000  0.34280000  1
  C  C46  1  0.82610000  0.17290000  0.84280000  1
  C  C47  1  0.32610000  0.32710000  0.65720000  1
  C  C48  1  0.17510000  0.82420000  0.28239000  1
  C  C49  1  0.67510000  0.67580000  0.21761000  1
  C  C50  1  0.82490000  0.17580000  0.71761000  1
  C  C51  1  0.32490000  0.32420000  0.78239000  1
  C  C52  1  0.16940000  0.67490000  0.15492000  1
  C  C53  1  0.66940000  0.82510000  0.34508000  1
  C  C54  1  0.83060000  0.32510000  0.84508000  1
  C  C55  1  0.33060000  0.17490000  0.65492000  1
  C  C56  1  0.16960000  0.59750000  0.21580000  1
  C  C57  1  0.66960000  0.90250000  0.28420000  1
  C  C58  1  0.83040000  0.40250000  0.78420000  1
  C  C59  1  0.33040000  0.09750000  0.71580000  1
  C  C60  1  0.17270000  0.67290000  0.27942000  1
  C  C61  1  0.67270000  0.82710000  0.22058000  1
  C  C62  1  0.82730000  0.32710000  0.72058000  1
  C  C63  1  0.32730000  0.17290000  0.77942000  1
  O  O64  1  0.12420000  0.80680000  0.01946000  1
  O  O65  1  0.62420000  0.69320000  0.48054000  1
  O  O66  1  0.87580000  0.19320000  0.98054000  1
  O  O67  1  0.37580000  0.30680000  0.51946000  1
  O  O68  1  0.29680000  0.90110000  0.89323000  1
  O  O69  1  0.79680000  0.59890000  0.60677000  1
  O  O70  1  0.70320000  0.09890000  0.10677000  1
  O  O71  1  0.20320000  0.40110000  0.39323000  1
  O  O72  1  0.95200000  0.62930000  0.90949000  1
  O  O73  1  0.45200000  0.87070000  0.59051000  1
  O  O74  1  0.04800000  0.37070000  0.09051000  1
  O  O75  1  0.54800000  0.12930000  0.40949000  1
  O  O76  1  0.34420000  0.59290000  0.94859000  1
  O  O77  1  0.84420000  0.90710000  0.55141000  1
  O  O78  1  0.65580000  0.40710000  0.05141000  1
  O  O79  1  0.15580000  0.09290000  0.44859000  1
  O  O80  1  0.36080000  0.14810000  0.18913000  1
  O  O81  1  0.86080000  0.35190000  0.31087000  1
  O  O82  1  0.63920000  0.85190000  0.81087000  1
  O  O83  1  0.13920000  0.64810000  0.68913000  1
  O  O84  1  0.40910000  0.93020000  0.06166000  1
  O  O85  1  0.90910000  0.56980000  0.43834000  1
  O  O86  1  0.59090000  0.06980000  0.93834000  1
  O  O87  1  0.09090000  0.43020000  0.56166000  1
  O  O88  1  0.65090000  0.69880000  0.01613000  1
  O  O89  1  0.15090000  0.80120000  0.48387000  1
  O  O90  1  0.34910000  0.30120000  0.98387000  1
  O  O91  1  0.84910000  0.19880000  0.51613000  1
  O  O92  1  0.10610000  0.06090000  0.07789000  1.0
  O  O93  1  0.60610000  0.43910000  0.42211000  1.0
  O  O94  1  0.89390000  0.93910000  0.92211000  1.0
  O  O95  1  0.39390000  0.56090000  0.57789000  1.0
  O  O96  1  0.22680000  0.13440000  0.30944000  1.0
  O  O97  1  0.72680000  0.36560000  0.19056000  1.0
  O  O98  1  0.77320000  0.86560000  0.69056000  1.0
  O  O99  1  0.27320000  0.63440000  0.80944000  1.0
  O  O100  1  0.01300000  0.17130000  0.20932000  1.0
  O  O101  1  0.51300000  0.32870000  0.29068000  1.0
  O  O102  1  0.98700000  0.82870000  0.79068000  1.0
  O  O103  1  0.48700000  0.67130000  0.70932000  1.0
