# generated using pymatgen
data_ZnH17C12Br(NO)2
_symmetry_space_group_name_H-M   'P 1'
_cell_length_a   14.78430000
_cell_length_b   15.95390000
_cell_length_c   15.95390000
_cell_angle_alpha   120.00000000
_cell_angle_beta   90.00000000
_cell_angle_gamma   90.00000000
_symmetry_Int_Tables_number   1
_chemical_formula_structural   ZnH17C12Br(NO)2
_chemical_formula_sum   'Zn6 H102 C72 Br6 N12 O12'
_cell_volume   3258.85569055
_cell_formula_units_Z   6
loop_
 _symmetry_equiv_pos_site_id
 _symmetry_equiv_pos_as_xyz
  1  'x, y, z'
loop_
 _atom_site_type_symbol
 _atom_site_label
 _atom_site_symmetry_multiplicity
 _atom_site_fract_x
 _atom_site_fract_y
 _atom_site_fract_z
 _atom_site_occupancy
  Zn  Zn0  1  0.98510000  0.38554000  0.63348000  1
  Zn  Zn1  1  0.65177000  0.24794000  0.61446000  1
  Zn  Zn2  1  0.48510000  0.61446000  0.36652000  1
  Zn  Zn3  1  0.15177000  0.75206000  0.38554000  1
  Zn  Zn4  1  0.31843000  0.36652000  0.75206000  1
  Zn  Zn5  1  0.81843000  0.63348000  0.24794000  1
  H  H6  1  0.51280000  0.71430000  0.07010000  1
  H  H7  1  0.12997000  0.70190000  0.17190000  1
  H  H8  1  0.33267000  0.55720000  0.10970000  1
  H  H9  1  0.06440000  0.20270000  0.47360000  1
  H  H10  1  0.90660000  0.24280000  0.78580000  1
  H  H11  1  0.99933000  0.55250000  0.44280000  1
  H  H12  1  0.94880000  0.00280000  0.38490000  1
  H  H13  1  0.62997000  0.29810000  0.82810000  1
  H  H14  1  0.12587000  0.54170000  0.32810000  1
  H  H15  1  0.23167000  0.61200000  0.24400000  1
  H  H16  1  0.84613000  0.92990000  0.64420000  1
  H  H17  1  0.76377000  0.67560000  0.89720000  1
  H  H18  1  0.43043000  0.22160000  0.32440000  1
  H  H19  1  0.77533000  0.61930000  0.47730000  1
  H  H20  1  0.10867000  0.52270000  0.14200000  1
  H  H21  1  0.73107000  0.27090000  0.79730000  1
  H  H22  1  0.78213000  0.38490000  0.38210000  1
  H  H23  1  0.34613000  0.07010000  0.35580000  1
  H  H24  1  0.28367000  0.35830000  0.26880000  1
  H  H25  1  0.45033000  0.08950000  0.35830000  1
  H  H26  1  0.59710000  0.89720000  0.22160000  1
  H  H27  1  0.27533000  0.38070000  0.52270000  1
  H  H28  1  0.79663000  0.47000000  0.29810000  1
  H  H29  1  0.79253000  0.78640000  0.45830000  1
  H  H30  1  0.40303000  0.09160000  0.44730000  1
  H  H31  1  0.76187000  0.51810000  0.76320000  1
  H  H32  1  0.07327000  0.45700000  0.24280000  1
  H  H33  1  0.61700000  0.73120000  0.08950000  1
  H  H34  1  0.89833000  0.63200000  0.38800000  1
  H  H35  1  0.73167000  0.38800000  0.75600000  1
  H  H36  1  0.09710000  0.10280000  0.77840000  1
  H  H37  1  0.70890000  0.04310000  0.49540000  1
  H  H38  1  0.60867000  0.47730000  0.85800000  1
  H  H39  1  0.16600000  0.10970000  0.55250000  1
  H  H40  1  0.29663000  0.53000000  0.70190000  1
  H  H41  1  0.39833000  0.36800000  0.61200000  1
  H  H42  1  0.90303000  0.90840000  0.55270000  1
  H  H43  1  0.65807000  0.67990000  0.89280000  1
  H  H44  1  0.66197000  0.49230000  0.14690000  1
  H  H45  1  0.78367000  0.64170000  0.73120000  1
  H  H46  1  0.26377000  0.32440000  0.10280000  1
  H  H47  1  0.62587000  0.45830000  0.67190000  1
  H  H48  1  0.73993000  0.78580000  0.54300000  1
  H  H49  1  0.49140000  0.89280000  0.21290000  1
  H  H50  1  0.17947000  0.35580000  0.28570000  1
  H  H51  1  0.83267000  0.44280000  0.89030000  1
  H  H52  1  0.11700000  0.26880000  0.91050000  1
  H  H53  1  0.20890000  0.95690000  0.50460000  1
  H  H54  1  0.28213000  0.61510000  0.61790000  1
  H  H55  1  0.32473000  0.21290000  0.32010000  1
  H  H56  1  0.54223000  0.49540000  0.45230000  1
  H  H57  1  0.49933000  0.44750000  0.55720000  1
  H  H58  1  0.09520000  0.23680000  0.75490000  1
  H  H59  1  0.06500000  0.24400000  0.63200000  1
  H  H60  1  0.99140000  0.10720000  0.78710000  1
  H  H61  1  0.23637000  0.44730000  0.35570000  1
  H  H62  1  0.04223000  0.50460000  0.54770000  1
  H  H63  1  0.44200000  0.85800000  0.38070000  1
  H  H64  1  0.29253000  0.21360000  0.54170000  1
  H  H65  1  0.70417000  0.60660000  0.91780000  1
  H  H66  1  0.40660000  0.75720000  0.21420000  1
  H  H67  1  0.45920000  0.67190000  0.21360000  1
  H  H68  1  0.37083000  0.31120000  0.39340000  1
  H  H69  1  0.66600000  0.89030000  0.44750000  1
  H  H70  1  0.73637000  0.55270000  0.64430000  1
  H  H71  1  0.67947000  0.64420000  0.71430000  1
  H  H72  1  0.06970000  0.35570000  0.90840000  1
  H  H73  1  0.99530000  0.85310000  0.34540000  1
  H  H74  1  0.82473000  0.78710000  0.67990000  1
  H  H75  1  0.59520000  0.76320000  0.24510000  1
  H  H76  1  0.23107000  0.72910000  0.20270000  1
  H  H77  1  0.61547000  0.38210000  0.99720000  1
  H  H78  1  0.96330000  0.17190000  0.47000000  1
  H  H79  1  0.11547000  0.61790000  0.00280000  1
  H  H80  1  0.95033000  0.91050000  0.64170000  1
  H  H81  1  0.42853000  0.24510000  0.48190000  1
  H  H82  1  0.39773000  0.52640000  0.72910000  1
  H  H83  1  0.53750000  0.91780000  0.31120000  1
  H  H84  1  0.37557000  0.45230000  0.95690000  1
  H  H85  1  0.26187000  0.48190000  0.23680000  1
  H  H86  1  0.15807000  0.32010000  0.10720000  1
  H  H87  1  0.94200000  0.14200000  0.61930000  1
  H  H88  1  0.82863000  0.34540000  0.49230000  1
  H  H89  1  0.44880000  0.99720000  0.61510000  1
  H  H90  1  0.03750000  0.08220000  0.68880000  1
  H  H91  1  0.56970000  0.64430000  0.09160000  1
  H  H92  1  0.92853000  0.75490000  0.51810000  1
  H  H93  1  0.56500000  0.75600000  0.36800000  1
  H  H94  1  0.16197000  0.50770000  0.85310000  1
  H  H95  1  0.87083000  0.68880000  0.60660000  1
  H  H96  1  0.23993000  0.21420000  0.45700000  1
  H  H97  1  0.89773000  0.47360000  0.27090000  1
  H  H98  1  0.32863000  0.65460000  0.50770000  1
  H  H99  1  0.87557000  0.54770000  0.04310000  1
  H  H100  1  0.57327000  0.54300000  0.75720000  1
  H  H101  1  0.20417000  0.39340000  0.08220000  1
  H  H102  1  0.56440000  0.79730000  0.52640000  1
  H  H103  1  0.95920000  0.32810000  0.78640000  1
  H  H104  1  0.93043000  0.77840000  0.67560000  1
  H  H105  1  0.46330000  0.82810000  0.53000000  1
  H  H106  1  0.49530000  0.14690000  0.65460000  1
  H  H107  1  0.01280000  0.28570000  0.92990000  1
  C  C108  1  0.66917000  0.41550000  0.00460000  1
  C  C109  1  0.16917000  0.58450000  0.99540000  1
  C  C110  1  0.15520000  0.96650000  0.48030000  1
  C  C111  1  0.10947000  0.56290000  0.21270000  1
  C  C112  1  0.68553000  0.63190000  0.38300000  1
  C  C113  1  0.69777000  0.48120000  0.09440000  1
  C  C114  1  0.60947000  0.43710000  0.78730000  1
  C  C115  1  0.37813000  0.21070000  0.43830000  1
  C  C116  1  0.79707000  0.45070000  0.94180000  1
  C  C117  1  0.63040000  0.94180000  0.49110000  1
  C  C118  1  0.62467000  0.50000000  0.74170000  1
  C  C119  1  0.13040000  0.05820000  0.50890000  1
  C  C120  1  0.19777000  0.51880000  0.90560000  1
  C  C121  1  0.96373000  0.50890000  0.45070000  1
  C  C122  1  0.89593000  0.89360000  0.60370000  1
  C  C123  1  0.70917000  0.63810000  0.88010000  1
  C  C124  1  0.01887000  0.61700000  0.24890000  1
  C  C125  1  0.29133000  0.24170000  0.50000000  1
  C  C126  1  0.71147000  0.56170000  0.77240000  1
  C  C127  1  0.77613000  0.64980000  0.43710000  1
  C  C128  1  0.33583000  0.58910000  0.58450000  1
  C  C129  1  0.35483000  0.50010000  0.67600000  1
  C  C130  1  0.50250000  0.00460000  0.58910000  1
  C  C131  1  0.00250000  0.99540000  0.41090000  1
  C  C132  1  0.54480000  0.77240000  0.21070000  1
  C  C133  1  0.51887000  0.38300000  0.75110000  1
  C  C134  1  0.86443000  0.38680000  0.48120000  1
  C  C135  1  0.29707000  0.54930000  0.05820000  1
  C  C136  1  0.94280000  0.21270000  0.64980000  1
  C  C137  1  0.21147000  0.43830000  0.22760000  1
  C  C138  1  0.38463000  0.52740000  0.60250000  1
  C  C139  1  0.88463000  0.47260000  0.39750000  1
  C  C140  1  0.45800000  0.74170000  0.24170000  1
  C  C141  1  0.02150000  0.17590000  0.49990000  1
  C  C142  1  0.37583000  0.24200000  0.36190000  1
  C  C143  1  0.71797000  0.39750000  0.92490000  1
  C  C144  1  0.72927000  0.60370000  0.71010000  1
  C  C145  1  0.65520000  0.03350000  0.51970000  1
  C  C146  1  0.36443000  0.61320000  0.51880000  1
  C  C147  1  0.22927000  0.39630000  0.28990000  1
  C  C148  1  0.03110000  0.90560000  0.38680000  1
  C  C149  1  0.87583000  0.75800000  0.63810000  1
  C  C150  1  0.53110000  0.09440000  0.61320000  1
  C  C151  1  0.21797000  0.60250000  0.07510000  1
  C  C152  1  0.54250000  0.88010000  0.24200000  1
  C  C153  1  0.20917000  0.36190000  0.11990000  1
  C  C154  1  0.12467000  0.50000000  0.25830000  1
  C  C155  1  0.85220000  0.24890000  0.63190000  1
  C  C156  1  0.18553000  0.36810000  0.61700000  1
  C  C157  1  0.52150000  0.82410000  0.50010000  1
  C  C158  1  0.32187000  0.48620000  0.96650000  1
  C  C159  1  0.05130000  0.07510000  0.47260000  1
  C  C160  1  0.87813000  0.78930000  0.56170000  1
  C  C161  1  0.98853000  0.48030000  0.51380000  1
  C  C162  1  0.95800000  0.25830000  0.75830000  1
  C  C163  1  0.35220000  0.75110000  0.36810000  1
  C  C164  1  0.18817000  0.67600000  0.17590000  1
  C  C165  1  0.04480000  0.22760000  0.78930000  1
  C  C166  1  0.06260000  0.28990000  0.89360000  1
  C  C167  1  0.56260000  0.71010000  0.10640000  1
  C  C168  1  0.83583000  0.41090000  0.41550000  1
  C  C169  1  0.04250000  0.11990000  0.75800000  1
  C  C170  1  0.48853000  0.51970000  0.48620000  1
  C  C171  1  0.82187000  0.51380000  0.03350000  1
  C  C172  1  0.39593000  0.10640000  0.39630000  1
  C  C173  1  0.44280000  0.78730000  0.35020000  1
  C  C174  1  0.55130000  0.92490000  0.52740000  1
  C  C175  1  0.79133000  0.75830000  0.50000000  1
  C  C176  1  0.46373000  0.49110000  0.54930000  1
  C  C177  1  0.68817000  0.32400000  0.82410000  1
  C  C178  1  0.85483000  0.49990000  0.32400000  1
  C  C179  1  0.27613000  0.35020000  0.56290000  1
  Br  Br180  1  0.47936000  0.47523000  0.20879000  1
  Br  Br181  1  0.31269000  0.20879000  0.73356000  1
  Br  Br182  1  0.14603000  0.73356000  0.52477000  1
  Br  Br183  1  0.64603000  0.26644000  0.47523000  1
  Br  Br184  1  0.97936000  0.52477000  0.79121000  1
  Br  Br185  1  0.81269000  0.79121000  0.26644000  1
  N  N186  1  0.01340000  0.24290000  0.60530000  1
  N  N187  1  0.60750000  0.11160000  0.58070000  1
  N  N188  1  0.18007000  0.63760000  0.24290000  1
  N  N189  1  0.51340000  0.75710000  0.39470000  1
  N  N190  1  0.10750000  0.88840000  0.41930000  1
  N  N191  1  0.44083000  0.58070000  0.46910000  1
  N  N192  1  0.94083000  0.41930000  0.53090000  1
  N  N193  1  0.84673000  0.60530000  0.36240000  1
  N  N194  1  0.34673000  0.39470000  0.63760000  1
  N  N195  1  0.27417000  0.46910000  0.88840000  1
  N  N196  1  0.68007000  0.36240000  0.75710000  1
  N  N197  1  0.77417000  0.53090000  0.11160000  1
  O  O198  1  0.44997000  0.42280000  0.80180000  1
  O  O199  1  0.61663000  0.62100000  0.42280000  1
  O  O200  1  0.28330000  0.80180000  0.37900000  1
  O  O201  1  0.85250000  0.32880000  0.63610000  1
  O  O202  1  0.11663000  0.37900000  0.57720000  1
  O  O203  1  0.51917000  0.30730000  0.67120000  1
  O  O204  1  0.68583000  0.63610000  0.30730000  1
  O  O205  1  0.94997000  0.57720000  0.19820000  1
  O  O206  1  0.78330000  0.19820000  0.62100000  1
  O  O207  1  0.01917000  0.69270000  0.32880000  1
  O  O208  1  0.35250000  0.67120000  0.36390000  1
  O  O209  1  0.18583000  0.36390000  0.69270000  1
