# generated using pymatgen
data_D2CuH4(C4N3)2
_symmetry_space_group_name_H-M   'P 1'
_cell_length_a   26.23733854
_cell_length_b   26.23733854
_cell_length_c   26.23733854
_cell_angle_alpha   60.00000000
_cell_angle_beta   60.00000000
_cell_angle_gamma   60.00000000
_symmetry_Int_Tables_number   1
_chemical_formula_structural   D2CuH4(C4N3)2
_chemical_formula_sum   'D48 Cu24 H96 C192 N144'
_cell_volume   12771.57150142
_cell_formula_units_Z   24
loop_
 _symmetry_equiv_pos_site_id
 _symmetry_equiv_pos_as_xyz
  1  'x, y, z'
loop_
 _atom_site_type_symbol
 _atom_site_label
 _atom_site_symmetry_multiplicity
 _atom_site_fract_x
 _atom_site_fract_y
 _atom_site_fract_z
 _atom_site_occupancy
  C  C0  1  0.38380000  0.93940000  0.38380000  1.0
  C  C1  1  0.29300000  0.38380000  0.93940000  1.0
  C  C2  1  0.38380000  0.29300000  0.38380000  1.0
  C  C3  1  0.56060000  0.11620000  0.11620000  1.0
  C  C4  1  0.11620000  0.56060000  0.20700000  1.0
  C  C5  1  0.29300000  0.93940000  0.38380000  1.0
  C  C6  1  0.93940000  0.29300000  0.38380000  1.0
  C  C7  1  0.11620000  0.11620000  0.56060000  1.0
  C  C8  1  0.11620000  0.11620000  0.20700000  1.0
  C  C9  1  0.29300000  0.38380000  0.38380000  1.0
  C  C10  1  0.38380000  0.29300000  0.93940000  1.0
  C  C11  1  0.11620000  0.56060000  0.11620000  1.0
  C  C12  1  0.56060000  0.11620000  0.20700000  1.0
  C  C13  1  0.38380000  0.93940000  0.29300000  1.0
  C  C14  1  0.93940000  0.38380000  0.38380000  1.0
  C  C15  1  0.11620000  0.20700000  0.11620000  1.0
  C  C16  1  0.20700000  0.11620000  0.56060000  1.0
  C  C17  1  0.38380000  0.38380000  0.29300000  1.0
  C  C18  1  0.38380000  0.38380000  0.93940000  1.0
  C  C19  1  0.56060000  0.20700000  0.11620000  1.0
  C  C20  1  0.20700000  0.56060000  0.11620000  1.0
  C  C21  1  0.93940000  0.38380000  0.29300000  1.0
  C  C22  1  0.11620000  0.20700000  0.56060000  1.0
  C  C23  1  0.20700000  0.11620000  0.11620000  1.0
  C  C24  1  0.61620000  0.06060000  0.61620000  1.0
  C  C25  1  0.70700000  0.61620000  0.06060000  1.0
  C  C26  1  0.61620000  0.70700000  0.61620000  1.0
  C  C27  1  0.43940000  0.88380000  0.88380000  1.0
  C  C28  1  0.88380000  0.43940000  0.79300000  1.0
  C  C29  1  0.70700000  0.06060000  0.61620000  1.0
  C  C30  1  0.06060000  0.70700000  0.61620000  1.0
  C  C31  1  0.88380000  0.88380000  0.43940000  1.0
  C  C32  1  0.88380000  0.88380000  0.79300000  1.0
  C  C33  1  0.70700000  0.61620000  0.61620000  1.0
  C  C34  1  0.61620000  0.70700000  0.06060000  1.0
  C  C35  1  0.88380000  0.43940000  0.88380000  1.0
  C  C36  1  0.43940000  0.88380000  0.79300000  1.0
  C  C37  1  0.61620000  0.06060000  0.70700000  1.0
  C  C38  1  0.06060000  0.61620000  0.61620000  1.0
  C  C39  1  0.88380000  0.79300000  0.88380000  1.0
  C  C40  1  0.79300000  0.88380000  0.43940000  1.0
  C  C41  1  0.61620000  0.61620000  0.70700000  1.0
  C  C42  1  0.61620000  0.61620000  0.06060000  1.0
  C  C43  1  0.43940000  0.79300000  0.88380000  1.0
  C  C44  1  0.79300000  0.43940000  0.88380000  1.0
  C  C45  1  0.06060000  0.61620000  0.70700000  1.0
  C  C46  1  0.88380000  0.79300000  0.43940000  1.0
  C  C47  1  0.79300000  0.88380000  0.88380000  1.0
  C  C48  1  0.41410000  0.93970000  0.32310000  1.0
  C  C49  1  0.32310000  0.32310000  0.93970000  1.0
  C  C50  1  0.32310000  0.32310000  0.41410000  1.0
  C  C51  1  0.56030000  0.08590000  0.17690000  1.0
  C  C52  1  0.08590000  0.56030000  0.17690000  1.0
  C  C53  1  0.32310000  0.93970000  0.41410000  1.0
  C  C54  1  0.93970000  0.32310000  0.32310000  1.0
  C  C55  1  0.08590000  0.17690000  0.56030000  1.0
  C  C56  1  0.17690000  0.08590000  0.17690000  1.0
  C  C57  1  0.32310000  0.41410000  0.32310000  1.0
  C  C58  1  0.41410000  0.32310000  0.93970000  1.0
  C  C59  1  0.17690000  0.56030000  0.08590000  1.0
  C  C60  1  0.56030000  0.17690000  0.17690000  1.0
  C  C61  1  0.32310000  0.93970000  0.32310000  1.0
  C  C62  1  0.93970000  0.32310000  0.41410000  1.0
  C  C63  1  0.08590000  0.17690000  0.17690000  1.0
  C  C64  1  0.17690000  0.08590000  0.56030000  1.0
  C  C65  1  0.41410000  0.32310000  0.32310000  1.0
  C  C66  1  0.32310000  0.41410000  0.93970000  1.0
  C  C67  1  0.56030000  0.17690000  0.08590000  1.0
  C  C68  1  0.17690000  0.56030000  0.17690000  1.0
  C  C69  1  0.93970000  0.41410000  0.32310000  1.0
  C  C70  1  0.17690000  0.17690000  0.56030000  1.0
  C  C71  1  0.17690000  0.17690000  0.08590000  1.0
  C  C72  1  0.58590000  0.06030000  0.67690000  1.0
  C  C73  1  0.67690000  0.67690000  0.06030000  1.0
  C  C74  1  0.67690000  0.67690000  0.58590000  1.0
  C  C75  1  0.43970000  0.91410000  0.82310000  1.0
  C  C76  1  0.91410000  0.43970000  0.82310000  1.0
  C  C77  1  0.67690000  0.06030000  0.58590000  1.0
  C  C78  1  0.06030000  0.67690000  0.67690000  1.0
  C  C79  1  0.91410000  0.82310000  0.43970000  1.0
  C  C80  1  0.82310000  0.91410000  0.82310000  1.0
  C  C81  1  0.67690000  0.58590000  0.67690000  1.0
  C  C82  1  0.58590000  0.67690000  0.06030000  1.0
  C  C83  1  0.82310000  0.43970000  0.91410000  1.0
  C  C84  1  0.43970000  0.82310000  0.82310000  1.0
  C  C85  1  0.67690000  0.06030000  0.67690000  1.0
  C  C86  1  0.06030000  0.67690000  0.58590000  1.0
  C  C87  1  0.91410000  0.82310000  0.82310000  1.0
  C  C88  1  0.82310000  0.91410000  0.43970000  1.0
  C  C89  1  0.58590000  0.67690000  0.67690000  1.0
  C  C90  1  0.67690000  0.58590000  0.06030000  1.0
  C  C91  1  0.43970000  0.82310000  0.91410000  1.0
  C  C92  1  0.82310000  0.43970000  0.82310000  1.0
  C  C93  1  0.06030000  0.58590000  0.67690000  1.0
  C  C94  1  0.82310000  0.82310000  0.43970000  1.0
  C  C95  1  0.82310000  0.82310000  0.91410000  1.0
  C  C96  1  0.41540000  0.94040000  0.41540000  1.0
  C  C97  1  0.22880000  0.41540000  0.94040000  1.0
  C  C98  1  0.41540000  0.22880000  0.41540000  1.0
  C  C99  1  0.55960000  0.08460000  0.08460000  1.0
  C  C100  1  0.08460000  0.55960000  0.27120000  1.0
  C  C101  1  0.22880000  0.94040000  0.41540000  1.0
  C  C102  1  0.94040000  0.22880000  0.41540000  1.0
  C  C103  1  0.08460000  0.08460000  0.55960000  1.0
  C  C104  1  0.08460000  0.08460000  0.27120000  1.0
  C  C105  1  0.22880000  0.41540000  0.41540000  1.0
  C  C106  1  0.41540000  0.22880000  0.94040000  1.0
  C  C107  1  0.08460000  0.55960000  0.08460000  1.0
  C  C108  1  0.55960000  0.08460000  0.27120000  1.0
  C  C109  1  0.41540000  0.94040000  0.22880000  1.0
  C  C110  1  0.94040000  0.41540000  0.41540000  1.0
  C  C111  1  0.08460000  0.27120000  0.08460000  1.0
  C  C112  1  0.27120000  0.08460000  0.55960000  1.0
  C  C113  1  0.41540000  0.41540000  0.22880000  1.0
  C  C114  1  0.41540000  0.41540000  0.94040000  1.0
  C  C115  1  0.55960000  0.27120000  0.08460000  1.0
  C  C116  1  0.27120000  0.55960000  0.08460000  1.0
  C  C117  1  0.94040000  0.41540000  0.22880000  1.0
  C  C118  1  0.08460000  0.27120000  0.55960000  1.0
  C  C119  1  0.27120000  0.08460000  0.08460000  1.0
  C  C120  1  0.58460000  0.05960000  0.58460000  1.0
  C  C121  1  0.77120000  0.58460000  0.05960000  1.0
  C  C122  1  0.58460000  0.77120000  0.58460000  1.0
  C  C123  1  0.44040000  0.91540000  0.91540000  1.0
  C  C124  1  0.91540000  0.44040000  0.72880000  1.0
  C  C125  1  0.77120000  0.05960000  0.58460000  1.0
  C  C126  1  0.05960000  0.77120000  0.58460000  1.0
  C  C127  1  0.91540000  0.91540000  0.44040000  1.0
  C  C128  1  0.91540000  0.91540000  0.72880000  1.0
  C  C129  1  0.77120000  0.58460000  0.58460000  1.0
  C  C130  1  0.58460000  0.77120000  0.05960000  1.0
  C  C131  1  0.91540000  0.44040000  0.91540000  1.0
  C  C132  1  0.44040000  0.91540000  0.72880000  1.0
  C  C133  1  0.58460000  0.05960000  0.77120000  1.0
  C  C134  1  0.05960000  0.58460000  0.58460000  1.0
  C  C135  1  0.91540000  0.72880000  0.91540000  1.0
  C  C136  1  0.72880000  0.91540000  0.44040000  1.0
  C  C137  1  0.58460000  0.58460000  0.77120000  1.0
  C  C138  1  0.58460000  0.58460000  0.05960000  1.0
  C  C139  1  0.44040000  0.72880000  0.91540000  1.0
  C  C140  1  0.72880000  0.44040000  0.91540000  1.0
  C  C141  1  0.05960000  0.58460000  0.77120000  1.0
  C  C142  1  0.91540000  0.72880000  0.44040000  1.0
  C  C143  1  0.72880000  0.91540000  0.91540000  1.0
  C  C144  1  0.47600000  0.94260000  0.38520000  1.0
  C  C145  1  0.19620000  0.38520000  0.94260000  1.0
  C  C146  1  0.38520000  0.19620000  0.47600000  1.0
  C  C147  1  0.55740000  0.02400000  0.11480000  1.0
  C  C148  1  0.02400000  0.55740000  0.30380000  1.0
  C  C149  1  0.19620000  0.94260000  0.47600000  1.0
  C  C150  1  0.94260000  0.19620000  0.38520000  1.0
  C  C151  1  0.02400000  0.11480000  0.55740000  1.0
  C  C152  1  0.11480000  0.02400000  0.30380000  1.0
  C  C153  1  0.19620000  0.47600000  0.38520000  1.0
  C  C154  1  0.47600000  0.19620000  0.94260000  1.0
  C  C155  1  0.11480000  0.55740000  0.02400000  1.0
  C  C156  1  0.55740000  0.11480000  0.30380000  1.0
  C  C157  1  0.38520000  0.94260000  0.19620000  1.0
  C  C158  1  0.94260000  0.38520000  0.47600000  1.0
  C  C159  1  0.02400000  0.30380000  0.11480000  1.0
  C  C160  1  0.30380000  0.02400000  0.55740000  1.0
  C  C161  1  0.47600000  0.38520000  0.19620000  1.0
  C  C162  1  0.38520000  0.47600000  0.94260000  1.0
  C  C163  1  0.55740000  0.30380000  0.02400000  1.0
  C  C164  1  0.30380000  0.55740000  0.11480000  1.0
  C  C165  1  0.94260000  0.47600000  0.19620000  1.0
  C  C166  1  0.11480000  0.30380000  0.55740000  1.0
  C  C167  1  0.30380000  0.11480000  0.02400000  1.0
  C  C168  1  0.52400000  0.05740000  0.61480000  1.0
  C  C169  1  0.80380000  0.61480000  0.05740000  1.0
  C  C170  1  0.61480000  0.80380000  0.52400000  1.0
  C  C171  1  0.44260000  0.97600000  0.88520000  1.0
  C  C172  1  0.97600000  0.44260000  0.69620000  1.0
  C  C173  1  0.80380000  0.05740000  0.52400000  1.0
  C  C174  1  0.05740000  0.80380000  0.61480000  1.0
  C  C175  1  0.97600000  0.88520000  0.44260000  1.0
  C  C176  1  0.88520000  0.97600000  0.69620000  1.0
  C  C177  1  0.80380000  0.52400000  0.61480000  1.0
  C  C178  1  0.52400000  0.80380000  0.05740000  1.0
  C  C179  1  0.88520000  0.44260000  0.97600000  1.0
  C  C180  1  0.44260000  0.88520000  0.69620000  1.0
  C  C181  1  0.61480000  0.05740000  0.80380000  1.0
  C  C182  1  0.05740000  0.61480000  0.52400000  1.0
  C  C183  1  0.97600000  0.69620000  0.88520000  1.0
  C  C184  1  0.69620000  0.97600000  0.44260000  1.0
  C  C185  1  0.52400000  0.61480000  0.80380000  1.0
  C  C186  1  0.61480000  0.52400000  0.05740000  1.0
  C  C187  1  0.44260000  0.69620000  0.97600000  1.0
  C  C188  1  0.69620000  0.44260000  0.88520000  1.0
  C  C189  1  0.05740000  0.52400000  0.80380000  1.0
  C  C190  1  0.88520000  0.69620000  0.44260000  1.0
  C  C191  1  0.69620000  0.88520000  0.97600000  1.0
  Cu  Cu192  1  0.56460000  0.93540000  0.43540000  1.0
  Cu  Cu193  1  0.06460000  0.43540000  0.93540000  1.0
  Cu  Cu194  1  0.43540000  0.06460000  0.56460000  1.0
  Cu  Cu195  1  0.56460000  0.93540000  0.06460000  1.0
  Cu  Cu196  1  0.93540000  0.56460000  0.43540000  1.0
  Cu  Cu197  1  0.06460000  0.93540000  0.56460000  1.0
  Cu  Cu198  1  0.93540000  0.06460000  0.43540000  1.0
  Cu  Cu199  1  0.93540000  0.06460000  0.56460000  1.0
  Cu  Cu200  1  0.06460000  0.93540000  0.43540000  1.0
  Cu  Cu201  1  0.06460000  0.56460000  0.43540000  1.0
  Cu  Cu202  1  0.56460000  0.06460000  0.93540000  1.0
  Cu  Cu203  1  0.06460000  0.56460000  0.93540000  1.0
  Cu  Cu204  1  0.56460000  0.06460000  0.43540000  1.0
  Cu  Cu205  1  0.43540000  0.93540000  0.06460000  1.0
  Cu  Cu206  1  0.93540000  0.43540000  0.56460000  1.0
  Cu  Cu207  1  0.93540000  0.43540000  0.06460000  1.0
  Cu  Cu208  1  0.43540000  0.93540000  0.56460000  1.0
  Cu  Cu209  1  0.56460000  0.43540000  0.06460000  1.0
  Cu  Cu210  1  0.43540000  0.56460000  0.93540000  1.0
  Cu  Cu211  1  0.56460000  0.43540000  0.93540000  1.0
  Cu  Cu212  1  0.43540000  0.56460000  0.06460000  1.0
  Cu  Cu213  1  0.93540000  0.56460000  0.06460000  1.0
  Cu  Cu214  1  0.06460000  0.43540000  0.56460000  1.0
  Cu  Cu215  1  0.43540000  0.06460000  0.93540000  1.0
  D0+  D216  1  0.66100000  0.86100000  0.35900000  1.0
  D0+  D217  1  0.11900000  0.35900000  0.86100000  1.0
  D0+  D218  1  0.35900000  0.11900000  0.66100000  1.0
  D0+  D219  1  0.63900000  0.83900000  0.14100000  1.0
  D0+  D220  1  0.83900000  0.63900000  0.38100000  1.0
  D0+  D221  1  0.11900000  0.86100000  0.66100000  1.0
  D0+  D222  1  0.86100000  0.11900000  0.35900000  1.0
  D0+  D223  1  0.83900000  0.14100000  0.63900000  1.0
  D0+  D224  1  0.14100000  0.83900000  0.38100000  1.0
  D0+  D225  1  0.11900000  0.66100000  0.35900000  1.0
  D0+  D226  1  0.66100000  0.11900000  0.86100000  1.0
  D0+  D227  1  0.14100000  0.63900000  0.83900000  1.0
  D0+  D228  1  0.63900000  0.14100000  0.38100000  1.0
  D0+  D229  1  0.35900000  0.86100000  0.11900000  1.0
  D0+  D230  1  0.86100000  0.35900000  0.66100000  1.0
  D0+  D231  1  0.83900000  0.38100000  0.14100000  1.0
  D0+  D232  1  0.38100000  0.83900000  0.63900000  1.0
  D0+  D233  1  0.66100000  0.35900000  0.11900000  1.0
  D0+  D234  1  0.35900000  0.66100000  0.86100000  1.0
  D0+  D235  1  0.63900000  0.38100000  0.83900000  1.0
  D0+  D236  1  0.38100000  0.63900000  0.14100000  1.0
  D0+  D237  1  0.86100000  0.66100000  0.11900000  1.0
  D0+  D238  1  0.14100000  0.38100000  0.63900000  1.0
  D0+  D239  1  0.38100000  0.14100000  0.83900000  1.0
  D0+  D240  1  0.33900000  0.13900000  0.64100000  1.0
  D0+  D241  1  0.88100000  0.64100000  0.13900000  1.0
  D0+  D242  1  0.64100000  0.88100000  0.33900000  1.0
  D0+  D243  1  0.36100000  0.16100000  0.85900000  1.0
  D0+  D244  1  0.16100000  0.36100000  0.61900000  1.0
  D0+  D245  1  0.88100000  0.13900000  0.33900000  1.0
  D0+  D246  1  0.13900000  0.88100000  0.64100000  1.0
  D0+  D247  1  0.16100000  0.85900000  0.36100000  1.0
  D0+  D248  1  0.85900000  0.16100000  0.61900000  1.0
  D0+  D249  1  0.88100000  0.33900000  0.64100000  1.0
  D0+  D250  1  0.33900000  0.88100000  0.13900000  1.0
  D0+  D251  1  0.85900000  0.36100000  0.16100000  1.0
  D0+  D252  1  0.36100000  0.85900000  0.61900000  1.0
  D0+  D253  1  0.64100000  0.13900000  0.88100000  1.0
  D0+  D254  1  0.13900000  0.64100000  0.33900000  1.0
  D0+  D255  1  0.16100000  0.61900000  0.85900000  1.0
  D0+  D256  1  0.61900000  0.16100000  0.36100000  1.0
  D0+  D257  1  0.33900000  0.64100000  0.88100000  1.0
  D0+  D258  1  0.64100000  0.33900000  0.13900000  1.0
  D0+  D259  1  0.36100000  0.61900000  0.16100000  1.0
  D0+  D260  1  0.61900000  0.36100000  0.85900000  1.0
  D0+  D261  1  0.13900000  0.33900000  0.88100000  1.0
  D0+  D262  1  0.85900000  0.61900000  0.36100000  1.0
  D0+  D263  1  0.61900000  0.85900000  0.16100000  1.0
  H  H264  1  0.46610000  0.93410000  0.29990000  1.0
  H  H265  1  0.29990000  0.29990000  0.93410000  1.0
  H  H266  1  0.29990000  0.29990000  0.46610000  1.0
  H  H267  1  0.56590000  0.03390000  0.20010000  1.0
  H  H268  1  0.03390000  0.56590000  0.20010000  1.0
  H  H269  1  0.29990000  0.93410000  0.46610000  1.0
  H  H270  1  0.93410000  0.29990000  0.29990000  1.0
  H  H271  1  0.03390000  0.20010000  0.56590000  1.0
  H  H272  1  0.20010000  0.03390000  0.20010000  1.0
  H  H273  1  0.29990000  0.46610000  0.29990000  1.0
  H  H274  1  0.46610000  0.29990000  0.93410000  1.0
  H  H275  1  0.20010000  0.56590000  0.03390000  1.0
  H  H276  1  0.56590000  0.20010000  0.20010000  1.0
  H  H277  1  0.29990000  0.93410000  0.29990000  1.0
  H  H278  1  0.93410000  0.29990000  0.46610000  1.0
  H  H279  1  0.03390000  0.20010000  0.20010000  1.0
  H  H280  1  0.20010000  0.03390000  0.56590000  1.0
  H  H281  1  0.46610000  0.29990000  0.29990000  1.0
  H  H282  1  0.29990000  0.46610000  0.93410000  1.0
  H  H283  1  0.56590000  0.20010000  0.03390000  1.0
  H  H284  1  0.20010000  0.56590000  0.20010000  1.0
  H  H285  1  0.93410000  0.46610000  0.29990000  1.0
  H  H286  1  0.20010000  0.20010000  0.56590000  1.0
  H  H287  1  0.20010000  0.20010000  0.03390000  1.0
  H  H288  1  0.53390000  0.06590000  0.70010000  1.0
  H  H289  1  0.70010000  0.70010000  0.06590000  1.0
  H  H290  1  0.70010000  0.70010000  0.53390000  1.0
  H  H291  1  0.43410000  0.96610000  0.79990000  1.0
  H  H292  1  0.96610000  0.43410000  0.79990000  1.0
  H  H293  1  0.70010000  0.06590000  0.53390000  1.0
  H  H294  1  0.06590000  0.70010000  0.70010000  1.0
  H  H295  1  0.96610000  0.79990000  0.43410000  1.0
  H  H296  1  0.79990000  0.96610000  0.79990000  1.0
  H  H297  1  0.70010000  0.53390000  0.70010000  1.0
  H  H298  1  0.53390000  0.70010000  0.06590000  1.0
  H  H299  1  0.79990000  0.43410000  0.96610000  1.0
  H  H300  1  0.43410000  0.79990000  0.79990000  1.0
  H  H301  1  0.70010000  0.06590000  0.70010000  1.0
  H  H302  1  0.06590000  0.70010000  0.53390000  1.0
  H  H303  1  0.96610000  0.79990000  0.79990000  1.0
  H  H304  1  0.79990000  0.96610000  0.43410000  1.0
  H  H305  1  0.53390000  0.70010000  0.70010000  1.0
  H  H306  1  0.70010000  0.53390000  0.06590000  1.0
  H  H307  1  0.43410000  0.79990000  0.96610000  1.0
  H  H308  1  0.79990000  0.43410000  0.79990000  1.0
  H  H309  1  0.06590000  0.53390000  0.70010000  1.0
  H  H310  1  0.79990000  0.79990000  0.43410000  1.0
  H  H311  1  0.79990000  0.79990000  0.96610000  1.0
  H  H312  1  0.50900000  0.94300000  0.33900000  1.0
  H  H313  1  0.20900000  0.33900000  0.94300000  1.0
  H  H314  1  0.33900000  0.20900000  0.50900000  1.0
  H  H315  1  0.55700000  0.99100000  0.16100000  1.0
  H  H316  1  0.99100000  0.55700000  0.29100000  1.0
  H  H317  1  0.20900000  0.94300000  0.50900000  1.0
  H  H318  1  0.94300000  0.20900000  0.33900000  1.0
  H  H319  1  0.99100000  0.16100000  0.55700000  1.0
  H  H320  1  0.16100000  0.99100000  0.29100000  1.0
  H  H321  1  0.20900000  0.50900000  0.33900000  1.0
  H  H322  1  0.50900000  0.20900000  0.94300000  1.0
  H  H323  1  0.16100000  0.55700000  0.99100000  1.0
  H  H324  1  0.55700000  0.16100000  0.29100000  1.0
  H  H325  1  0.33900000  0.94300000  0.20900000  1.0
  H  H326  1  0.94300000  0.33900000  0.50900000  1.0
  H  H327  1  0.99100000  0.29100000  0.16100000  1.0
  H  H328  1  0.29100000  0.99100000  0.55700000  1.0
  H  H329  1  0.50900000  0.33900000  0.20900000  1.0
  H  H330  1  0.33900000  0.50900000  0.94300000  1.0
  H  H331  1  0.55700000  0.29100000  0.99100000  1.0
  H  H332  1  0.29100000  0.55700000  0.16100000  1.0
  H  H333  1  0.94300000  0.50900000  0.20900000  1.0
  H  H334  1  0.16100000  0.29100000  0.55700000  1.0
  H  H335  1  0.29100000  0.16100000  0.99100000  1.0
  H  H336  1  0.49100000  0.05700000  0.66100000  1.0
  H  H337  1  0.79100000  0.66100000  0.05700000  1.0
  H  H338  1  0.66100000  0.79100000  0.49100000  1.0
  H  H339  1  0.44300000  0.00900000  0.83900000  1.0
  H  H340  1  0.00900000  0.44300000  0.70900000  1.0
  H  H341  1  0.79100000  0.05700000  0.49100000  1.0
  H  H342  1  0.05700000  0.79100000  0.66100000  1.0
  H  H343  1  0.00900000  0.83900000  0.44300000  1.0
  H  H344  1  0.83900000  0.00900000  0.70900000  1.0
  H  H345  1  0.79100000  0.49100000  0.66100000  1.0
  H  H346  1  0.49100000  0.79100000  0.05700000  1.0
  H  H347  1  0.83900000  0.44300000  0.00900000  1.0
  H  H348  1  0.44300000  0.83900000  0.70900000  1.0
  H  H349  1  0.66100000  0.05700000  0.79100000  1.0
  H  H350  1  0.05700000  0.66100000  0.49100000  1.0
  H  H351  1  0.00900000  0.70900000  0.83900000  1.0
  H  H352  1  0.70900000  0.00900000  0.44300000  1.0
  H  H353  1  0.49100000  0.66100000  0.79100000  1.0
  H  H354  1  0.66100000  0.49100000  0.05700000  1.0
  H  H355  1  0.44300000  0.70900000  0.00900000  1.0
  H  H356  1  0.70900000  0.44300000  0.83900000  1.0
  H  H357  1  0.05700000  0.49100000  0.79100000  1.0
  H  H358  1  0.83900000  0.70900000  0.44300000  1.0
  H  H359  1  0.70900000  0.83900000  0.00900000  1.0
  N  N360  1  0.39600000  0.94000000  0.47320000  1.0
  N  N361  1  0.19080000  0.47320000  0.94000000  1.0
  N  N362  1  0.47320000  0.19080000  0.39600000  1.0
  N  N363  1  0.56000000  0.10400000  0.02680000  1.0
  N  N364  1  0.10400000  0.56000000  0.30920000  1.0
  N  N365  1  0.19080000  0.94000000  0.39600000  1.0
  N  N366  1  0.94000000  0.19080000  0.47320000  1.0
  N  N367  1  0.10400000  0.02680000  0.56000000  1.0
  N  N368  1  0.02680000  0.10400000  0.30920000  1.0
  N  N369  1  0.19080000  0.39600000  0.47320000  1.0
  N  N370  1  0.39600000  0.19080000  0.94000000  1.0
  N  N371  1  0.02680000  0.56000000  0.10400000  1.0
  N  N372  1  0.56000000  0.02680000  0.30920000  1.0
  N  N373  1  0.47320000  0.94000000  0.19080000  1.0
  N  N374  1  0.94000000  0.47320000  0.39600000  1.0
  N  N375  1  0.10400000  0.30920000  0.02680000  1.0
  N  N376  1  0.30920000  0.10400000  0.56000000  1.0
  N  N377  1  0.39600000  0.47320000  0.19080000  1.0
  N  N378  1  0.47320000  0.39600000  0.94000000  1.0
  N  N379  1  0.56000000  0.30920000  0.10400000  1.0
  N  N380  1  0.30920000  0.56000000  0.02680000  1.0
  N  N381  1  0.94000000  0.39600000  0.19080000  1.0
  N  N382  1  0.02680000  0.30920000  0.56000000  1.0
  N  N383  1  0.30920000  0.02680000  0.10400000  1.0
  N  N384  1  0.60400000  0.06000000  0.52680000  1.0
  N  N385  1  0.80920000  0.52680000  0.06000000  1.0
  N  N386  1  0.52680000  0.80920000  0.60400000  1.0
  N  N387  1  0.44000000  0.89600000  0.97320000  1.0
  N  N388  1  0.89600000  0.44000000  0.69080000  1.0
  N  N389  1  0.80920000  0.06000000  0.60400000  1.0
  N  N390  1  0.06000000  0.80920000  0.52680000  1.0
  N  N391  1  0.89600000  0.97320000  0.44000000  1.0
  N  N392  1  0.97320000  0.89600000  0.69080000  1.0
  N  N393  1  0.80920000  0.60400000  0.52680000  1.0
  N  N394  1  0.60400000  0.80920000  0.06000000  1.0
  N  N395  1  0.97320000  0.44000000  0.89600000  1.0
  N  N396  1  0.44000000  0.97320000  0.69080000  1.0
  N  N397  1  0.52680000  0.06000000  0.80920000  1.0
  N  N398  1  0.06000000  0.52680000  0.60400000  1.0
  N  N399  1  0.89600000  0.69080000  0.97320000  1.0
  N  N400  1  0.69080000  0.89600000  0.44000000  1.0
  N  N401  1  0.60400000  0.52680000  0.80920000  1.0
  N  N402  1  0.52680000  0.60400000  0.06000000  1.0
  N  N403  1  0.44000000  0.69080000  0.89600000  1.0
  N  N404  1  0.69080000  0.44000000  0.97320000  1.0
  N  N405  1  0.06000000  0.60400000  0.80920000  1.0
  N  N406  1  0.97320000  0.69080000  0.44000000  1.0
  N  N407  1  0.69080000  0.97320000  0.89600000  1.0
  N  N408  1  0.49080000  0.94260000  0.42780000  1.0
  N  N409  1  0.13880000  0.42780000  0.94260000  1.0
  N  N410  1  0.42780000  0.13880000  0.49080000  1.0
  N  N411  1  0.55740000  0.00920000  0.07220000  1.0
  N  N412  1  0.00920000  0.55740000  0.36120000  1.0
  N  N413  1  0.13880000  0.94260000  0.49080000  1.0
  N  N414  1  0.94260000  0.13880000  0.42780000  1.0
  N  N415  1  0.00920000  0.07220000  0.55740000  1.0
  N  N416  1  0.07220000  0.00920000  0.36120000  1.0
  N  N417  1  0.13880000  0.49080000  0.42780000  1.0
  N  N418  1  0.49080000  0.13880000  0.94260000  1.0
  N  N419  1  0.07220000  0.55740000  0.00920000  1.0
  N  N420  1  0.55740000  0.07220000  0.36120000  1.0
  N  N421  1  0.42780000  0.94260000  0.13880000  1.0
  N  N422  1  0.94260000  0.42780000  0.49080000  1.0
  N  N423  1  0.00920000  0.36120000  0.07220000  1.0
  N  N424  1  0.36120000  0.00920000  0.55740000  1.0
  N  N425  1  0.49080000  0.42780000  0.13880000  1.0
  N  N426  1  0.42780000  0.49080000  0.94260000  1.0
  N  N427  1  0.55740000  0.36120000  0.00920000  1.0
  N  N428  1  0.36120000  0.55740000  0.07220000  1.0
  N  N429  1  0.94260000  0.49080000  0.13880000  1.0
  N  N430  1  0.07220000  0.36120000  0.55740000  1.0
  N  N431  1  0.36120000  0.07220000  0.00920000  1.0
  N  N432  1  0.50920000  0.05740000  0.57220000  1.0
  N  N433  1  0.86120000  0.57220000  0.05740000  1.0
  N  N434  1  0.57220000  0.86120000  0.50920000  1.0
  N  N435  1  0.44260000  0.99080000  0.92780000  1.0
  N  N436  1  0.99080000  0.44260000  0.63880000  1.0
  N  N437  1  0.86120000  0.05740000  0.50920000  1.0
  N  N438  1  0.05740000  0.86120000  0.57220000  1.0
  N  N439  1  0.99080000  0.92780000  0.44260000  1.0
  N  N440  1  0.92780000  0.99080000  0.63880000  1.0
  N  N441  1  0.86120000  0.50920000  0.57220000  1.0
  N  N442  1  0.50920000  0.86120000  0.05740000  1.0
  N  N443  1  0.92780000  0.44260000  0.99080000  1.0
  N  N444  1  0.44260000  0.92780000  0.63880000  1.0
  N  N445  1  0.57220000  0.05740000  0.86120000  1.0
  N  N446  1  0.05740000  0.57220000  0.50920000  1.0
  N  N447  1  0.99080000  0.63880000  0.92780000  1.0
  N  N448  1  0.63880000  0.99080000  0.44260000  1.0
  N  N449  1  0.50920000  0.57220000  0.86120000  1.0
  N  N450  1  0.57220000  0.50920000  0.05740000  1.0
  N  N451  1  0.44260000  0.63880000  0.99080000  1.0
  N  N452  1  0.63880000  0.44260000  0.92780000  1.0
  N  N453  1  0.05740000  0.50920000  0.86120000  1.0
  N  N454  1  0.92780000  0.63880000  0.44260000  1.0
  N  N455  1  0.63880000  0.92780000  0.99080000  1.0
  N  N456  1  0.44410000  0.93610000  0.48110000  1.0
  N  N457  1  0.13870000  0.48110000  0.93610000  1.0
  N  N458  1  0.48110000  0.13870000  0.44410000  1.0
  N  N459  1  0.56390000  0.05590000  0.01890000  1.0
  N  N460  1  0.05590000  0.56390000  0.36130000  1.0
  N  N461  1  0.13870000  0.93610000  0.44410000  1.0
  N  N462  1  0.93610000  0.13870000  0.48110000  1.0
  N  N463  1  0.05590000  0.01890000  0.56390000  1.0
  N  N464  1  0.01890000  0.05590000  0.36130000  1.0
  N  N465  1  0.13870000  0.44410000  0.48110000  1.0
  N  N466  1  0.44410000  0.13870000  0.93610000  1.0
  N  N467  1  0.01890000  0.56390000  0.05590000  1.0
  N  N468  1  0.56390000  0.01890000  0.36130000  1.0
  N  N469  1  0.48110000  0.93610000  0.13870000  1.0
  N  N470  1  0.93610000  0.48110000  0.44410000  1.0
  N  N471  1  0.05590000  0.36130000  0.01890000  1.0
  N  N472  1  0.36130000  0.05590000  0.56390000  1.0
  N  N473  1  0.44410000  0.48110000  0.13870000  1.0
  N  N474  1  0.48110000  0.44410000  0.93610000  1.0
  N  N475  1  0.56390000  0.36130000  0.05590000  1.0
  N  N476  1  0.36130000  0.56390000  0.01890000  1.0
  N  N477  1  0.93610000  0.44410000  0.13870000  1.0
  N  N478  1  0.01890000  0.36130000  0.56390000  1.0
  N  N479  1  0.36130000  0.01890000  0.05590000  1.0
  N  N480  1  0.55590000  0.06390000  0.51890000  1.0
  N  N481  1  0.86130000  0.51890000  0.06390000  1.0
  N  N482  1  0.51890000  0.86130000  0.55590000  1.0
  N  N483  1  0.43610000  0.94410000  0.98110000  1.0
  N  N484  1  0.94410000  0.43610000  0.63870000  1.0
  N  N485  1  0.86130000  0.06390000  0.55590000  1.0
  N  N486  1  0.06390000  0.86130000  0.51890000  1.0
  N  N487  1  0.94410000  0.98110000  0.43610000  1.0
  N  N488  1  0.98110000  0.94410000  0.63870000  1.0
  N  N489  1  0.86130000  0.55590000  0.51890000  1.0
  N  N490  1  0.55590000  0.86130000  0.06390000  1.0
  N  N491  1  0.98110000  0.43610000  0.94410000  1.0
  N  N492  1  0.43610000  0.98110000  0.63870000  1.0
  N  N493  1  0.51890000  0.06390000  0.86130000  1.0
  N  N494  1  0.06390000  0.51890000  0.55590000  1.0
  N  N495  1  0.94410000  0.63870000  0.98110000  1.0
  N  N496  1  0.63870000  0.94410000  0.43610000  1.0
  N  N497  1  0.55590000  0.51890000  0.86130000  1.0
  N  N498  1  0.51890000  0.55590000  0.06390000  1.0
  N  N499  1  0.43610000  0.63870000  0.94410000  1.0
  N  N500  1  0.63870000  0.43610000  0.98110000  1.0
  N  N501  1  0.06390000  0.55590000  0.86130000  1.0
  N  N502  1  0.98110000  0.63870000  0.43610000  1.0
  N  N503  1  0.63870000  0.98110000  0.94410000  1.0
