# generated using pymatgen
data_Zn2H7C12O7
_symmetry_space_group_name_H-M   'P 1'
_cell_length_a   14.56500004
_cell_length_b   15.85500000
_cell_length_c   18.85600026
_cell_angle_alpha   90.39799859
_cell_angle_beta   90.11399866
_cell_angle_gamma   90.00400067
_symmetry_Int_Tables_number   1
_chemical_formula_structural   Zn2H7C12O7
_chemical_formula_sum   'Zn16 H56 C96 O56'
_cell_volume   4354.26616636
_cell_formula_units_Z   8
loop_
 _symmetry_equiv_pos_site_id
 _symmetry_equiv_pos_as_xyz
  1  'x, y, z'
loop_
 _atom_site_type_symbol
 _atom_site_label
 _atom_site_symmetry_multiplicity
 _atom_site_fract_x
 _atom_site_fract_y
 _atom_site_fract_z
 _atom_site_occupancy
  Zn  Zn0  1  0.52788300  0.42992300  0.04017600  1
  Zn  Zn1  1  0.34346600  0.36340800  0.03424300  1
  Zn  Zn2  1  0.46927000  0.07102200  0.53825700  1
  Zn  Zn3  1  0.65612500  0.13676300  0.53393600  1
  Zn  Zn4  1  0.46858500  0.56996500  0.95674900  1
  Zn  Zn5  1  0.65568900  0.63422300  0.96285100  1
  Zn  Zn6  1  0.53076100  0.92866600  0.45858800  1
  Zn  Zn7  1  0.34391300  0.86311100  0.46300900  1
  Zn  Zn8  1  0.96901000  0.92649500  0.95922300  1
  Zn  Zn9  1  0.15606000  0.86244900  0.96345700  1
  Zn  Zn10  1  0.03139400  0.56991100  0.45696400  1
  Zn  Zn11  1  0.84423300  0.63419900  0.46279500  1
  Zn  Zn12  1  0.03086000  0.07059900  0.03806800  1
  Zn  Zn13  1  0.84390300  0.13595500  0.03381000  1
  Zn  Zn14  1  0.97214200  0.42986300  0.54020800  1
  Zn  Zn15  1  0.15662800  0.36350900  0.53441900  1
  H  H16  1  0.34784600  0.50827100  0.03320800  1
  H  H17  1  0.63336800  0.29771100  0.86425000  1
  H  H18  1  0.65951100  0.23569400  0.74313600  1
  H  H19  1  0.38791200  0.12930600  0.74585900  1
  H  H20  1  0.36165100  0.19130600  0.86628300  1
  H  H21  1  0.11084400  0.61738300  0.01121000  1
  H  H22  1  0.05268000  0.35191900  0.01663000  1
  H  H23  1  0.65129900  0.99220100  0.53382000  1
  H  H24  1  0.36680800  0.20216900  0.36252400  1
  H  H25  1  0.33985000  0.26536200  0.24258200  1
  H  H26  1  0.61216000  0.37028100  0.24643000  1
  H  H27  1  0.63934800  0.30678800  0.36556200  1
  H  H28  1  0.88834100  0.88191100  0.50987800  1
  H  H29  1  0.94724100  0.14731600  0.51773400  1
  H  H30  1  0.64868400  0.49025600  0.96356400  1
  H  H31  1  0.36479800  0.70289700  0.13268000  1
  H  H32  1  0.33955600  0.76504000  0.25382700  1
  H  H33  1  0.61211500  0.86933600  0.25069500  1
  H  H34  1  0.63749800  0.80710800  0.13025200  1
  H  H35  1  0.88815700  0.38108300  0.98562700  1
  H  H36  1  0.94633900  0.64652800  0.00000000  1
  H  H37  1  0.34861000  0.00759900  0.46308500  1
  H  H38  1  0.63309600  0.79698500  0.63493800  1
  H  H39  1  0.65950100  0.73308500  0.75466900  1
  H  H40  1  0.38698500  0.62869900  0.74986100  1
  H  H41  1  0.36044400  0.69263300  0.63087700  1
  H  H42  1  0.11154200  0.11766100  0.48679100  1
  H  H43  1  0.05260600  0.85228000  0.47889200  1
  H  H44  1  0.15087000  0.00631600  0.96322500  1
  H  H45  1  0.86623200  0.79532100  0.13426900  1
  H  H46  1  0.83986000  0.73183000  0.25411700  1
  H  H47  1  0.11292400  0.62862700  0.25082600  1
  H  H48  1  0.13946100  0.69225500  0.13174000  1
  H  H49  1  0.38817500  0.11615700  0.98607600  1
  H  H50  1  0.44783500  0.85090400  0.00000000  1
  H  H51  1  0.85107100  0.49028400  0.46356300  1
  H  H52  1  0.13508400  0.70219800  0.63346700  1
  H  H53  1  0.15984600  0.76350600  0.75507000  1
  H  H54  1  0.88796100  0.86922900  0.75039900  1
  H  H55  1  0.86295400  0.80763800  0.62958300  1
  H  H56  1  0.61154300  0.38154600  0.48594700  1
  H  H57  1  0.55338000  0.64697900  0.47990300  1
  H  H58  1  0.84942200  0.99160000  0.03398800  1
  H  H59  1  0.13374800  0.20104300  0.86234500  1
  H  H60  1  0.16048900  0.26467400  0.74264100  1
  H  H61  1  0.88808100  0.36936400  0.74615300  1
  H  H62  1  0.86104100  0.30524700  0.86497400  1
  H  H63  1  0.61212200  0.88114100  0.01034400  1
  H  H64  1  0.55248700  0.14642400  0.01705600  1
  H  H65  1  0.15231700  0.50836700  0.53346000  1
  H  H66  1  0.86680000  0.29802200  0.36347200  1
  H  H67  1  0.84087000  0.23599900  0.24225400  1
  H  H68  1  0.11223900  0.12914100  0.24628100  1
  H  H69  1  0.13829200  0.19112900  0.36680600  1
  H  H70  1  0.38904700  0.61794800  0.51082500  1
  H  H71  1  0.44720000  0.35250300  0.51692400  1
  C  C72  1  0.47601500  0.29283900  0.94045000  1
  C  C73  1  0.49557500  0.24912900  0.87183000  1
  C  C74  1  0.58030600  0.26053900  0.83787500  1
  C  C75  1  0.59475500  0.22620700  0.77071100  1
  C  C76  1  0.52475100  0.17993800  0.73704100  1
  C  C77  1  0.44120800  0.16618300  0.77213200  1
  C  C78  1  0.42663500  0.20066100  0.83906300  1
  C  C79  1  0.53727400  0.14786300  0.66314900  1
  C  C80  1  0.18975100  0.46621000  0.03303400  1
  C  C81  1  0.09119300  0.48294300  0.01603700  1
  C  C82  1  0.06155700  0.56612900  0.00568900  1
  C  C83  1  0.02856900  0.41614900  0.00862100  1
  C  C84  1  0.52447500  0.20617700  0.43867100  1
  C  C85  1  0.50497400  0.24989600  0.37051200  1
  C  C86  1  0.41984400  0.23921600  0.33660000  1
  C  C87  1  0.40494300  0.27424300  0.27013400  1
  C  C88  1  0.47485200  0.32060900  0.23721300  1
  C  C89  1  0.55892100  0.33343700  0.27221000  1
  C  C90  1  0.57399700  0.29811500  0.33839700  1
  C  C91  1  0.46159200  0.35366800  0.16411100  1
  C  C92  1  0.80981200  0.03352100  0.53295600  1
  C  C93  1  0.90829400  0.01639200  0.51592100  1
  C  C94  1  0.93771000  0.93307000  0.50489100  1
  C  C95  1  0.97111300  0.08298600  0.50917800  1
  C  C96  1  0.52191900  0.70649700  0.05612300  1
  C  C97  1  0.50304000  0.75033700  0.12485700  1
  C  C98  1  0.41829700  0.73961300  0.15897300  1
  C  C99  1  0.40434000  0.77403600  0.22617000  1
  C  C100  1  0.47482600  0.81978800  0.25976000  1
  C  C101  1  0.55840100  0.83286600  0.22452500  1
  C  C102  1  0.57249100  0.79824600  0.15756200  1
  C  C103  1  0.46261700  0.85197000  0.33367500  1
  C  C104  1  0.80922200  0.53238000  0.96397900  1
  C  C105  1  0.90780800  0.51551300  0.98087600  1
  C  C106  1  0.93745900  0.43232600  0.99118000  1
  C  C107  1  0.97044900  0.58229700  0.00000000  1
  C  C108  1  0.47553600  0.79355200  0.55832300  1
  C  C109  1  0.49487200  0.74950100  0.62640000  1
  C  C110  1  0.57987700  0.75987400  0.66057800  1
  C  C111  1  0.59448500  0.72443500  0.72695300  1
  C  C112  1  0.52436900  0.67805700  0.75961200  1
  C  C113  1  0.44042800  0.66555100  0.72433900  1
  C  C114  1  0.42568900  0.70117300  0.65822100  1
  C  C115  1  0.53715000  0.64471900  0.83273500  1
  C  C116  1  0.19011000  0.96616000  0.46386500  1
  C  C117  1  0.09157500  0.98320800  0.48077000  1
  C  C118  1  0.06214800  0.06652600  0.49177300  1
  C  C119  1  0.02874900  0.91661200  0.48747200  1
  C  C120  1  0.02402200  0.79246500  0.05860700  1
  C  C121  1  0.00475200  0.74843400  0.12658100  1
  C  C122  1  0.91955100  0.75854900  0.16027900  1
  C  C123  1  0.90496500  0.72336900  0.22669100  1
  C  C124  1  0.97527500  0.67748400  0.25976900  1
  C  C125  1  0.05938500  0.66514600  0.22493600  1
  C  C126  1  0.07411800  0.70054500  0.15879500  1
  C  C127  1  0.96260100  0.64448100  0.33292500  1
  C  C128  1  0.30995300  0.96436300  0.96381200  1
  C  C129  1  0.40851500  0.98172600  0.98066000  1
  C  C130  1  0.43774600  0.06518900  0.99132400  1
  C  C131  1  0.47155100  0.91533600  0.00000000  1
  C  C132  1  0.97824400  0.70658100  0.55610000  1
  C  C133  1  0.99713600  0.75028000  0.62493100  1
  C  C134  1  0.08164000  0.73902100  0.65955000  1
  C  C135  1  0.09531500  0.77297800  0.72698400  1
  C  C136  1  0.02484400  0.81885200  0.76024000  1
  C  C137  1  0.94160100  0.83261300  0.72445700  1
  C  C138  1  0.92775000  0.79838100  0.65729000  1
  C  C139  1  0.03670800  0.85045700  0.83437100  1
  C  C140  1  0.69045800  0.53269700  0.46394500  1
  C  C141  1  0.59191900  0.51595900  0.48083600  1
  C  C142  1  0.56229300  0.43281700  0.49133900  1
  C  C143  1  0.52931300  0.58276800  0.48804200  1
  C  C144  1  0.97628700  0.20467400  0.93825400  1
  C  C145  1  0.99549800  0.24854500  0.87014900  1
  C  C146  1  0.08062300  0.23811400  0.83639900  1
  C  C147  1  0.09541800  0.27340500  0.77005600  1
  C  C148  1  0.02546600  0.31988600  0.73709300  1
  C  C149  1  0.94138700  0.33243800  0.77192600  1
  C  C150  1  0.92638900  0.29678300  0.83796000  1
  C  C151  1  0.03864700  0.35338100  0.66413400  1
  C  C152  1  0.69029700  0.03300200  0.03292600  1
  C  C153  1  0.59179900  0.01558800  0.01581600  1
  C  C154  1  0.56258600  0.93213500  0.00508700  1
  C  C155  1  0.52877700  0.08198500  0.00874000  1
  C  C156  1  0.02399100  0.29287400  0.44042900  1
  C  C157  1  0.00447700  0.24921600  0.37171400  1
  C  C158  1  0.91985500  0.26076200  0.33734900  1
  C  C159  1  0.90553500  0.22641400  0.27012800  1
  C  C160  1  0.97552800  0.18000200  0.23680200  1
  C  C161  1  0.05895900  0.16613200  0.27229100  1
  C  C162  1  0.07341100  0.20062700  0.33927800  1
  C  C163  1  0.96300900  0.14783700  0.16289400  1
  C  C164  1  0.31022600  0.46673200  0.53305300  1
  C  C165  1  0.40867700  0.48350900  0.51599400  1
  C  C166  1  0.43828200  0.56666000  0.50544600  1
  C  C167  1  0.47127300  0.41670500  0.50875700  1
  O  O168  1  0.40318600  0.48083300  0.00854600  1
  O  O169  1  0.53984300  0.33670000  0.96885800  1
  O  O170  1  0.39461700  0.28466000  0.96526000  1
  O  O171  1  0.46897700  0.10753700  0.63581200  1
  O  O172  1  0.61297800  0.16318500  0.63213700  1
  O  O173  1  0.21469700  0.38750200  0.02799800  1
  O  O174  1  0.24230700  0.52636500  0.04956600  1
  O  O175  1  0.59581000  0.01921000  0.50912900  1
  O  O176  1  0.46030100  0.16270000  0.46630400  1
  O  O177  1  0.60584700  0.21428900  0.46388300  1
  O  O178  1  0.52869700  0.39614100  0.13802200  1
  O  O179  1  0.38648100  0.33705200  0.13231300  1
  O  O180  1  0.78495200  0.11218500  0.52796700  1
  O  O181  1  0.75728500  0.97369300  0.54948700  1
  O  O182  1  0.59402300  0.51842100  0.98811800  1
  O  O183  1  0.45740700  0.66311600  0.02802800  1
  O  O184  1  0.60318600  0.71416000  0.03097000  1
  O  O185  1  0.53099400  0.89225500  0.36096200  1
  O  O186  1  0.38695600  0.83675300  0.36478400  1
  O  O187  1  0.78463500  0.61124600  0.96908100  1
  O  O188  1  0.75640500  0.47245800  0.94750000  1
  O  O189  1  0.40414400  0.98059100  0.48772100  1
  O  O190  1  0.53970800  0.83713800  0.53078500  1
  O  O191  1  0.39417100  0.78556300  0.53305900  1
  O  O192  1  0.46889500  0.60384500  0.85894500  1
  O  O193  1  0.61281500  0.65952700  0.86433900  1
  O  O194  1  0.21503900  0.88752100  0.46888500  1
  O  O195  1  0.24260900  0.00000000  0.44743200  1
  O  O196  1  0.09562800  0.97941500  0.98802500  1
  O  O197  1  0.95925600  0.83533900  0.03075400  1
  O  O198  1  0.10550300  0.78532600  0.03380300  1
  O  O199  1  0.03098500  0.60377200  0.35933900  1
  O  O200  1  0.88701000  0.65939200  0.36434500  1
  O  O201  1  0.28517600  0.88565300  0.96898900  1
  O  O202  1  0.25723100  0.00000000  0.94727800  1
  O  O203  1  0.90588000  0.51838400  0.48812000  1
  O  O204  1  0.04269100  0.66318000  0.52813200  1
  O  O205  1  0.89693900  0.71428400  0.53079800  1
  O  O206  1  0.96899700  0.89205100  0.86103200  1
  O  O207  1  0.11148300  0.83343300  0.86632700  1
  O  O208  1  0.71525900  0.61150600  0.46906300  1
  O  O209  1  0.74308100  0.47271900  0.44744700  1
  O  O210  1  0.90469700  0.01831000  0.00910300  1
  O  O211  1  0.04110600  0.16225100  0.96641000  1
  O  O212  1  0.89466400  0.21167100  0.96290800  1
  O  O213  1  0.97150700  0.39602600  0.63806000  1
  O  O214  1  0.11369800  0.33696600  0.63241300  1
  O  O215  1  0.71499300  0.11170800  0.02783600  1
  O  O216  1  0.74301800  0.97335700  0.04963200  1
  O  O217  1  0.09682800  0.48084100  0.50882900  1
  O  O218  1  0.96016800  0.33667600  0.46873000  1
  O  O219  1  0.10541700  0.28468600  0.46543900  1
  O  O220  1  0.03118900  0.10742900  0.13572400  1
  O  O221  1  0.88724300  0.16321200  0.13172200  1
  O  O222  1  0.28528900  0.38801200  0.52805200  1
  O  O223  1  0.25773200  0.52684800  0.54962800  1
