# generated using pymatgen
data_Co3H8C16(N5O4)2
_symmetry_space_group_name_H-M   'P 1'
_cell_length_a   12.58790000
_cell_length_b   12.58790000
_cell_length_c   25.09000000
_cell_angle_alpha   90.00000000
_cell_angle_beta   90.00000000
_cell_angle_gamma   90.00000000
_symmetry_Int_Tables_number   1
_chemical_formula_structural   Co3H8C16(N5O4)2
_chemical_formula_sum   'Co12 H32 C64 N40 O32'
_cell_volume   3975.64163063
_cell_formula_units_Z   4
loop_
 _symmetry_equiv_pos_site_id
 _symmetry_equiv_pos_as_xyz
  1  'x, y, z'
loop_
 _atom_site_type_symbol
 _atom_site_label
 _atom_site_symmetry_multiplicity
 _atom_site_fract_x
 _atom_site_fract_y
 _atom_site_fract_z
 _atom_site_occupancy
  Co  Co0  1  0.67718000  0.25051000  0.87543000  1.0
  Co  Co1  1  0.32282000  0.74949000  0.37543000  1.0
  Co  Co2  1  0.24949000  0.17718000  0.12543000  1.0
  Co  Co3  1  0.75051000  0.82282000  0.62543000  1.0
  Co  Co4  1  0.82282000  0.75051000  0.37457000  1.0
  Co  Co5  1  0.17718000  0.24949000  0.87457000  1.0
  Co  Co6  1  0.25051000  0.67718000  0.12457000  1.0
  Co  Co7  1  0.74949000  0.32282000  0.62457000  1.0
  Co  Co8  1  0.43081000  0.56919000  0.75000000  1.0
  Co  Co9  1  0.56919000  0.43081000  0.25000000  1.0
  Co  Co10  1  0.93081000  0.93081000  0.00000000  1.0
  Co  Co11  1  0.06919000  0.06919000  0.50000000  1.0
  H  H12  1  0.45320000  0.29910000  0.06880000  1.0
  H  H13  1  0.49580000  0.08530000  0.91960000  1.0
  H  H14  1  0.37300000  0.07100000  0.91120000  1.0
  H  H15  1  0.28040000  0.08020000  0.00330000  1.0
  H  H16  1  0.54680000  0.70090000  0.56880000  1.0
  H  H17  1  0.50420000  0.91470000  0.41960000  1.0
  H  H18  1  0.62700000  0.92900000  0.41120000  1.0
  H  H19  1  0.71960000  0.91980000  0.50330000  1.0
  H  H20  1  0.20090000  0.95320000  0.31880000  1.0
  H  H21  1  0.41470000  0.99580000  0.16960000  1.0
  H  H22  1  0.42900000  0.87300000  0.16120000  1.0
  H  H23  1  0.41980000  0.78040000  0.25330000  1.0
  H  H24  1  0.79910000  0.04680000  0.81880000  1.0
  H  H25  1  0.58530000  0.00420000  0.66960000  1.0
  H  H26  1  0.57100000  0.12700000  0.66120000  1.0
  H  H27  1  0.58020000  0.21960000  0.75330000  1.0
  H  H28  1  0.04680000  0.79910000  0.18120000  1.0
  H  H29  1  0.00420000  0.58530000  0.33040000  1.0
  H  H30  1  0.12700000  0.57100000  0.33880000  1.0
  H  H31  1  0.21960000  0.58020000  0.24670000  1.0
  H  H32  1  0.95320000  0.20090000  0.68120000  1.0
  H  H33  1  0.99580000  0.41470000  0.83040000  1.0
  H  H34  1  0.87300000  0.42900000  0.83880000  1.0
  H  H35  1  0.78040000  0.41980000  0.74670000  1.0
  H  H36  1  0.29910000  0.45320000  0.93120000  1.0
  H  H37  1  0.08530000  0.49580000  0.08040000  1.0
  H  H38  1  0.07100000  0.37300000  0.08880000  1.0
  H  H39  1  0.08020000  0.28040000  0.99670000  1.0
  H  H40  1  0.70090000  0.54680000  0.43120000  1.0
  H  H41  1  0.91470000  0.50420000  0.58040000  1.0
  H  H42  1  0.92900000  0.62700000  0.58880000  1.0
  H  H43  1  0.91980000  0.71960000  0.49670000  1.0
  C  C44  1  0.56580000  0.42440000  0.82220000  1.0
  C  C45  1  0.48090000  0.34930000  0.83860000  1.0
  C  C46  1  0.42780000  0.21150000  0.88280000  1.0
  C  C47  1  0.28800000  0.40880000  0.81090000  1.0
  C  C48  1  0.37270000  0.34380000  0.83560000  1.0
  C  C49  1  0.42740000  0.25000000  0.04440000  1.0
  C  C50  1  0.42780000  0.12150000  0.92110000  1.0
  C  C51  1  0.33250000  0.13110000  0.00950000  1.0
  C  C52  1  0.43420000  0.57560000  0.32220000  1.0
  C  C53  1  0.51910000  0.65070000  0.33860000  1.0
  C  C54  1  0.57220000  0.78850000  0.38280000  1.0
  C  C55  1  0.71200000  0.59120000  0.31090000  1.0
  C  C56  1  0.62730000  0.65620000  0.33560000  1.0
  C  C57  1  0.57260000  0.75000000  0.54440000  1.0
  C  C58  1  0.57220000  0.87850000  0.42110000  1.0
  C  C59  1  0.66750000  0.86890000  0.50950000  1.0
  C  C60  1  0.07560000  0.06580000  0.07220000  1.0
  C  C61  1  0.15070000  0.98090000  0.08860000  1.0
  C  C62  1  0.28850000  0.92780000  0.13280000  1.0
  C  C63  1  0.09120000  0.78800000  0.06090000  1.0
  C  C64  1  0.15620000  0.87270000  0.08560000  1.0
  C  C65  1  0.25000000  0.92740000  0.29440000  1.0
  C  C66  1  0.37850000  0.92780000  0.17110000  1.0
  C  C67  1  0.36890000  0.83250000  0.25950000  1.0
  C  C68  1  0.92440000  0.93420000  0.57220000  1.0
  C  C69  1  0.84930000  0.01910000  0.58860000  1.0
  C  C70  1  0.71150000  0.07220000  0.63280000  1.0
  C  C71  1  0.90880000  0.21200000  0.56090000  1.0
  C  C72  1  0.84380000  0.12730000  0.58560000  1.0
  C  C73  1  0.75000000  0.07260000  0.79440000  1.0
  C  C74  1  0.62150000  0.07220000  0.67110000  1.0
  C  C75  1  0.63110000  0.16750000  0.75950000  1.0
  C  C76  1  0.93420000  0.92440000  0.42780000  1.0
  C  C77  1  0.01910000  0.84930000  0.41140000  1.0
  C  C78  1  0.07220000  0.71150000  0.36720000  1.0
  C  C79  1  0.21200000  0.90880000  0.43910000  1.0
  C  C80  1  0.12730000  0.84380000  0.41440000  1.0
  C  C81  1  0.07260000  0.75000000  0.20560000  1.0
  C  C82  1  0.07220000  0.62150000  0.32890000  1.0
  C  C83  1  0.16750000  0.63110000  0.24050000  1.0
  C  C84  1  0.06580000  0.07560000  0.92780000  1.0
  C  C85  1  0.98090000  0.15070000  0.91140000  1.0
  C  C86  1  0.92780000  0.28850000  0.86720000  1.0
  C  C87  1  0.78800000  0.09120000  0.93910000  1.0
  C  C88  1  0.87270000  0.15620000  0.91440000  1.0
  C  C89  1  0.92740000  0.25000000  0.70560000  1.0
  C  C90  1  0.92780000  0.37850000  0.82890000  1.0
  C  C91  1  0.83250000  0.36890000  0.74050000  1.0
  C  C92  1  0.42440000  0.56580000  0.17780000  1.0
  C  C93  1  0.34930000  0.48090000  0.16140000  1.0
  C  C94  1  0.21150000  0.42780000  0.11720000  1.0
  C  C95  1  0.40880000  0.28800000  0.18910000  1.0
  C  C96  1  0.34380000  0.37270000  0.16440000  1.0
  C  C97  1  0.25000000  0.42740000  0.95560000  1.0
  C  C98  1  0.12150000  0.42780000  0.07890000  1.0
  C  C99  1  0.13110000  0.33250000  0.99050000  1.0
  C  C100  1  0.57560000  0.43420000  0.67780000  1.0
  C  C101  1  0.65070000  0.51910000  0.66140000  1.0
  C  C102  1  0.78850000  0.57220000  0.61720000  1.0
  C  C103  1  0.59120000  0.71200000  0.68910000  1.0
  C  C104  1  0.65620000  0.62730000  0.66440000  1.0
  C  C105  1  0.75000000  0.57260000  0.45560000  1.0
  C  C106  1  0.87850000  0.57220000  0.57890000  1.0
  C  C107  1  0.86890000  0.66750000  0.49050000  1.0
  N  N108  1  0.33870000  0.25770000  0.86405000  1.0
  N  N109  1  0.51470000  0.26280000  0.86794000  1.0
  N  N110  1  0.34270000  0.18780000  0.05440000  1.0
  N  N111  1  0.40860000  0.15880000  0.97482000  1.0
  N  N112  1  0.47100000  0.23560000  0.99690000  1.0
  N  N113  1  0.66130000  0.74230000  0.36405000  1.0
  N  N114  1  0.48530000  0.73720000  0.36794000  1.0
  N  N115  1  0.65730000  0.81220000  0.55440000  1.0
  N  N116  1  0.59140000  0.84120000  0.47482000  1.0
  N  N117  1  0.52900000  0.76440000  0.49690000  1.0
  N  N118  1  0.24230000  0.83870000  0.11405000  1.0
  N  N119  1  0.23720000  0.01470000  0.11794000  1.0
  N  N120  1  0.31220000  0.84270000  0.30440000  1.0
  N  N121  1  0.34120000  0.90860000  0.22482000  1.0
  N  N122  1  0.26440000  0.97100000  0.24690000  1.0
  N  N123  1  0.75770000  0.16130000  0.61405000  1.0
  N  N124  1  0.76280000  0.98530000  0.61794000  1.0
  N  N125  1  0.68780000  0.15730000  0.80440000  1.0
  N  N126  1  0.65880000  0.09140000  0.72482000  1.0
  N  N127  1  0.73560000  0.02900000  0.74690000  1.0
  N  N128  1  0.16130000  0.75770000  0.38595000  1.0
  N  N129  1  0.98530000  0.76280000  0.38206000  1.0
  N  N130  1  0.15730000  0.68780000  0.19560000  1.0
  N  N131  1  0.09140000  0.65880000  0.27518000  1.0
  N  N132  1  0.02900000  0.73560000  0.25310000  1.0
  N  N133  1  0.83870000  0.24230000  0.88595000  1.0
  N  N134  1  0.01470000  0.23720000  0.88206000  1.0
  N  N135  1  0.84270000  0.31220000  0.69560000  1.0
  N  N136  1  0.90860000  0.34120000  0.77518000  1.0
  N  N137  1  0.97100000  0.26440000  0.75310000  1.0
  N  N138  1  0.25770000  0.33870000  0.13595000  1.0
  N  N139  1  0.26280000  0.51470000  0.13206000  1.0
  N  N140  1  0.18780000  0.34270000  0.94560000  1.0
  N  N141  1  0.15880000  0.40860000  0.02518000  1.0
  N  N142  1  0.23560000  0.47100000  0.00310000  1.0
  N  N143  1  0.74230000  0.66130000  0.63595000  1.0
  N  N144  1  0.73720000  0.48530000  0.63206000  1.0
  N  N145  1  0.81220000  0.65730000  0.44560000  1.0
  N  N146  1  0.84120000  0.59140000  0.52518000  1.0
  N  N147  1  0.76440000  0.52900000  0.50310000  1.0
  O  O148  1  0.66030000  0.39540000  0.83198000  1.0
  O  O149  1  0.19390000  0.38740000  0.82553000  1.0
  O  O150  1  0.54500000  0.51280000  0.80250000  1.0
  O  O151  1  0.30800000  0.48170000  0.77910000  1.0
  O  O152  1  0.33970000  0.60460000  0.33198000  1.0
  O  O153  1  0.80610000  0.61260000  0.32553000  1.0
  O  O154  1  0.45500000  0.48720000  0.30250000  1.0
  O  O155  1  0.69200000  0.51830000  0.27910000  1.0
  O  O156  1  0.10460000  0.16030000  0.08198000  1.0
  O  O157  1  0.11260000  0.69390000  0.07553000  1.0
  O  O158  1  0.98720000  0.04500000  0.05250000  1.0
  O  O159  1  0.01830000  0.80800000  0.02910000  1.0
  O  O160  1  0.89540000  0.83970000  0.58198000  1.0
  O  O161  1  0.88740000  0.30610000  0.57553000  1.0
  O  O162  1  0.01280000  0.95500000  0.55250000  1.0
  O  O163  1  0.98170000  0.19200000  0.52910000  1.0
  O  O164  1  0.83970000  0.89540000  0.41802000  1.0
  O  O165  1  0.30610000  0.88740000  0.42447000  1.0
  O  O166  1  0.95500000  0.01280000  0.44750000  1.0
  O  O167  1  0.19200000  0.98170000  0.47090000  1.0
  O  O168  1  0.16030000  0.10460000  0.91802000  1.0
  O  O169  1  0.69390000  0.11260000  0.92447000  1.0
  O  O170  1  0.04500000  0.98720000  0.94750000  1.0
  O  O171  1  0.80800000  0.01830000  0.97090000  1.0
  O  O172  1  0.39540000  0.66030000  0.16802000  1.0
  O  O173  1  0.38740000  0.19390000  0.17447000  1.0
  O  O174  1  0.51280000  0.54500000  0.19750000  1.0
  O  O175  1  0.48170000  0.30800000  0.22090000  1.0
  O  O176  1  0.60460000  0.33970000  0.66802000  1.0
  O  O177  1  0.61260000  0.80610000  0.67447000  1.0
  O  O178  1  0.48720000  0.45500000  0.69750000  1.0
  O  O179  1  0.51830000  0.69200000  0.72090000  1.0
