# generated using pymatgen
data_CoH5C7NO4
_symmetry_space_group_name_H-M   'P 1'
_cell_length_a   9.08380000
_cell_length_b   9.61570000
_cell_length_c   12.42520000
_cell_angle_alpha   93.48800000
_cell_angle_beta   104.35700000
_cell_angle_gamma   113.99300000
_symmetry_Int_Tables_number   1
_chemical_formula_structural   CoH5C7NO4
_chemical_formula_sum   'Co4 H20 C28 N4 O16'
_cell_volume   944.40281925
_cell_formula_units_Z   4
loop_
 _symmetry_equiv_pos_site_id
 _symmetry_equiv_pos_as_xyz
  1  'x, y, z'
loop_
 _atom_site_type_symbol
 _atom_site_label
 _atom_site_symmetry_multiplicity
 _atom_site_fract_x
 _atom_site_fract_y
 _atom_site_fract_z
 _atom_site_occupancy
  Co  Co0  1  0.86686000  0.00499000  0.20410000  1.0
  Co  Co1  1  0.13314000  0.99501000  0.79590000  1.0
  Co  Co2  1  0.50000000  0.00000000  0.00000000  1.0
  Co  Co3  1  0.00000000  0.50000000  0.00000000  1.0
  H  H4  1  0.71940000  0.37010000  0.32110000  1.0
  H  H5  1  0.63110000  0.46550000  0.18150000  1.0
  H  H6  1  0.35890000  0.37280000  0.09820000  1.0
  H  H7  1  0.38530000  0.34860000  0.28100000  1.0
  H  H8  1  0.43850000  0.07940000  0.25940000  1.0
  H  H9  1  0.50250000  0.20360000  0.36980000  1.0
  H  H10  1  0.98310000  0.88440000  0.41390000  1.0
  H  H11  1  0.87870000  0.72130000  0.52920000  1.0
  H  H12  1  0.41070000  0.61690000  0.33370000  1.0
  H  H13  1  0.52830000  0.79050000  0.22520000  1.0
  H  H14  1  0.28060000  0.62990000  0.67890000  1.0
  H  H15  1  0.36890000  0.53450000  0.81850000  1.0
  H  H16  1  0.64110000  0.62720000  0.90180000  1.0
  H  H17  1  0.61470000  0.65140000  0.71900000  1.0
  H  H18  1  0.56150000  0.92060000  0.74060000  1.0
  H  H19  1  0.49750000  0.79640000  0.63020000  1.0
  H  H20  1  0.01690000  0.11560000  0.58610000  1.0
  H  H21  1  0.12130000  0.27870000  0.47080000  1.0
  H  H22  1  0.58930000  0.38310000  0.66630000  1.0
  H  H23  1  0.47170000  0.20950000  0.77480000  1.0
  C  C24  1  0.66850000  0.34650000  0.05970000  1.0
  C  C25  1  0.29580000  0.14950000  0.02510000  1.0
  C  C26  1  0.17390000  0.14860000  0.22080000  1.0
  C  C27  1  0.73260000  0.18460000  0.24420000  1.0
  C  C28  1  0.64440000  0.28420000  0.25790000  1.0
  C  C29  1  0.58750000  0.35480000  0.15250000  1.0
  C  C30  1  0.39150000  0.29060000  0.11950000  1.0
  C  C31  1  0.35500000  0.25060000  0.23280000  1.0
  C  C32  1  0.48130000  0.18880000  0.28850000  1.0
  C  C33  1  0.86660000  0.83070000  0.39790000  1.0
  C  C34  1  0.80540000  0.73250000  0.46700000  1.0
  C  C35  1  0.63330000  0.64980000  0.44350000  1.0
  C  C36  1  0.52740000  0.67120000  0.35130000  1.0
  C  C37  1  0.59910000  0.77480000  0.28630000  1.0
  C  C38  1  0.33150000  0.65350000  0.94030000  1.0
  C  C39  1  0.70420000  0.85050000  0.97490000  1.0
  C  C40  1  0.82610000  0.85140000  0.77920000  1.0
  C  C41  1  0.26740000  0.81540000  0.75580000  1.0
  C  C42  1  0.35560000  0.71580000  0.74210000  1.0
  C  C43  1  0.41250000  0.64520000  0.84750000  1.0
  C  C44  1  0.60850000  0.70940000  0.88050000  1.0
  C  C45  1  0.64500000  0.74940000  0.76720000  1.0
  C  C46  1  0.51870000  0.81120000  0.71150000  1.0
  C  C47  1  0.13340000  0.16930000  0.60210000  1.0
  C  C48  1  0.19460000  0.26750000  0.53300000  1.0
  C  C49  1  0.36670000  0.35020000  0.55650000  1.0
  C  C50  1  0.47260000  0.32880000  0.64870000  1.0
  C  C51  1  0.40090000  0.22520000  0.71370000  1.0
  N  N52  1  0.57600000  0.54490000  0.51740000  1.0
  N  N53  1  0.76830000  0.85470000  0.30750000  1.0
  N  N54  1  0.42400000  0.45510000  0.48260000  1.0
  N  N55  1  0.23170000  0.14530000  0.69250000  1.0
  O  O56  1  0.60200000  0.23030000  0.98240000  1.0
  O  O57  1  0.80580000  0.46060000  0.07150000  1.0
  O  O58  1  0.30620000  0.02640000  0.04390000  1.0
  O  O59  1  0.21040000  0.16410000  0.93230000  1.0
  O  O60  1  0.06020000  0.17450000  0.15550000  1.0
  O  O61  1  0.13170000  0.04180000  0.27650000  1.0
  O  O62  1  0.66270000  0.06620000  0.16430000  1.0
  O  O63  1  0.87090000  0.21190000  0.30930000  1.0
  O  O64  1  0.39800000  0.76970000  0.01760000  1.0
  O  O65  1  0.19420000  0.53940000  0.92850000  1.0
  O  O66  1  0.69380000  0.97360000  0.95610000  1.0
  O  O67  1  0.78960000  0.83590000  0.06770000  1.0
  O  O68  1  0.93980000  0.82550000  0.84450000  1.0
  O  O69  1  0.86830000  0.95820000  0.72350000  1.0
  O  O70  1  0.33730000  0.93380000  0.83570000  1.0
  O  O71  1  0.12910000  0.78810000  0.69070000  1.0
