# generated using pymatgen
data_MnHC4O3
_symmetry_space_group_name_H-M   'P 1'
_cell_length_a   26.29580000
_cell_length_b   26.29580000
_cell_length_c   7.05164000
_cell_angle_alpha   90.00000000
_cell_angle_beta   90.00000000
_cell_angle_gamma   120.00000000
_symmetry_Int_Tables_number   1
_chemical_formula_structural   MnHC4O3
_chemical_formula_sum   'Mn18 H18 C72 O54'
_cell_volume   4222.73220252
_cell_formula_units_Z   18
loop_
 _symmetry_equiv_pos_site_id
 _symmetry_equiv_pos_as_xyz
  1  'x, y, z'
loop_
 _atom_site_type_symbol
 _atom_site_label
 _atom_site_symmetry_multiplicity
 _atom_site_fract_x
 _atom_site_fract_y
 _atom_site_fract_z
 _atom_site_occupancy
  Mn  Mn0  1  0.94970000  0.63890000  0.02800000  1
  Mn  Mn1  1  0.36110000  0.31080000  0.02800000  1
  Mn  Mn2  1  0.68920000  0.05030000  0.02800000  1
  Mn  Mn3  1  0.61637000  0.97223000  0.36133000  1
  Mn  Mn4  1  0.02777000  0.64413000  0.36133000  1
  Mn  Mn5  1  0.35587000  0.38363000  0.36133000  1
  Mn  Mn6  1  0.28303000  0.30557000  0.69467000  1
  Mn  Mn7  1  0.69443000  0.97747000  0.69467000  1
  Mn  Mn8  1  0.02253000  0.71697000  0.69467000  1
  Mn  Mn9  1  0.05030000  0.36110000  0.97200000  1
  Mn  Mn10  1  0.63890000  0.68920000  0.97200000  1
  Mn  Mn11  1  0.31080000  0.94970000  0.97200000  1
  Mn  Mn12  1  0.38363000  0.02777000  0.63867000  1
  Mn  Mn13  1  0.97223000  0.35587000  0.63867000  1
  Mn  Mn14  1  0.64413000  0.61637000  0.63867000  1
  Mn  Mn15  1  0.71697000  0.69443000  0.30533000  1
  Mn  Mn16  1  0.30557000  0.02253000  0.30533000  1
  Mn  Mn17  1  0.97747000  0.28303000  0.30533000  1
  H  H18  1  0.97270000  0.49760000  0.33760000  1
  H  H19  1  0.50240000  0.47510000  0.33760000  1
  H  H20  1  0.52490000  0.02730000  0.33760000  1
  H  H21  1  0.63937000  0.83093000  0.67093000  1
  H  H22  1  0.16907000  0.80843000  0.67093000  1
  H  H23  1  0.19157000  0.36063000  0.67093000  1
  H  H24  1  0.30603000  0.16427000  0.00427000  1
  H  H25  1  0.83573000  0.14177000  0.00427000  1
  H  H26  1  0.85823000  0.69397000  0.00427000  1
  H  H27  1  0.02730000  0.50240000  0.66240000  1
  H  H28  1  0.49760000  0.52490000  0.66240000  1
  H  H29  1  0.47510000  0.97270000  0.66240000  1
  H  H30  1  0.36063000  0.16907000  0.32907000  1
  H  H31  1  0.83093000  0.19157000  0.32907000  1
  H  H32  1  0.80843000  0.63937000  0.32907000  1
  H  H33  1  0.69397000  0.83573000  0.99573000  1
  H  H34  1  0.16427000  0.85823000  0.99573000  1
  H  H35  1  0.14177000  0.30603000  0.99573000  1
  C  C36  1  0.01340000  0.59210000  0.74580000  1
  C  C37  1  0.40790000  0.42130000  0.74580000  1
  C  C38  1  0.57870000  0.98660000  0.74580000  1
  C  C39  1  0.68007000  0.92543000  0.07913000  1
  C  C40  1  0.07457000  0.75463000  0.07913000  1
  C  C41  1  0.24537000  0.31993000  0.07913000  1
  C  C42  1  0.34673000  0.25877000  0.41247000  1
  C  C43  1  0.74123000  0.08797000  0.41247000  1
  C  C44  1  0.91203000  0.65327000  0.41247000  1
  C  C45  1  0.98660000  0.40790000  0.25420000  1
  C  C46  1  0.59210000  0.57870000  0.25420000  1
  C  C47  1  0.42130000  0.01340000  0.25420000  1
  C  C48  1  0.31993000  0.07457000  0.92087000  1
  C  C49  1  0.92543000  0.24537000  0.92087000  1
  C  C50  1  0.75463000  0.68007000  0.92087000  1
  C  C51  1  0.65327000  0.74123000  0.58753000  1
  C  C52  1  0.25877000  0.91203000  0.58753000  1
  C  C53  1  0.08797000  0.34673000  0.58753000  1
  C  C54  1  0.00570000  0.54580000  0.87910000  1
  C  C55  1  0.45420000  0.45990000  0.87910000  1
  C  C56  1  0.54010000  0.99430000  0.87910000  1
  C  C57  1  0.67237000  0.87913000  0.21243000  1
  C  C58  1  0.12087000  0.79323000  0.21243000  1
  C  C59  1  0.20677000  0.32763000  0.21243000  1
  C  C60  1  0.33903000  0.21247000  0.54577000  1
  C  C61  1  0.78753000  0.12657000  0.54577000  1
  C  C62  1  0.87343000  0.66097000  0.54577000  1
  C  C63  1  0.99430000  0.45420000  0.12090000  1
  C  C64  1  0.54580000  0.54010000  0.12090000  1
  C  C65  1  0.45990000  0.00570000  0.12090000  1
  C  C66  1  0.32763000  0.12087000  0.78757000  1
  C  C67  1  0.87913000  0.20677000  0.78757000  1
  C  C68  1  0.79323000  0.67237000  0.78757000  1
  C  C69  1  0.66097000  0.78753000  0.45423000  1
  C  C70  1  0.21247000  0.87343000  0.45423000  1
  C  C71  1  0.12657000  0.33903000  0.45423000  1
  C  C72  1  0.99040000  0.54550000  0.07510000  1
  C  C73  1  0.45450000  0.44490000  0.07510000  1
  C  C74  1  0.55510000  0.00960000  0.07510000  1
  C  C75  1  0.65707000  0.87883000  0.40843000  1
  C  C76  1  0.12117000  0.77823000  0.40843000  1
  C  C77  1  0.22177000  0.34293000  0.40843000  1
  C  C78  1  0.32373000  0.21217000  0.74177000  1
  C  C79  1  0.78783000  0.11157000  0.74177000  1
  C  C80  1  0.88843000  0.67627000  0.74177000  1
  C  C81  1  0.00960000  0.45450000  0.92490000  1
  C  C82  1  0.54550000  0.55510000  0.92490000  1
  C  C83  1  0.44490000  0.99040000  0.92490000  1
  C  C84  1  0.34293000  0.12117000  0.59157000  1
  C  C85  1  0.87883000  0.22177000  0.59157000  1
  C  C86  1  0.77823000  0.65707000  0.59157000  1
  C  C87  1  0.67627000  0.78783000  0.25823000  1
  C  C88  1  0.21217000  0.88843000  0.25823000  1
  C  C89  1  0.11157000  0.32373000  0.25823000  1
  C  C90  1  0.98360000  0.49820000  0.18680000  1
  C  C91  1  0.50180000  0.48540000  0.18680000  1
  C  C92  1  0.51460000  0.01640000  0.18680000  1
  C  C93  1  0.65027000  0.83153000  0.52013000  1
  C  C94  1  0.16847000  0.81873000  0.52013000  1
  C  C95  1  0.18127000  0.34973000  0.52013000  1
  C  C96  1  0.31693000  0.16487000  0.85347000  1
  C  C97  1  0.83513000  0.15207000  0.85347000  1
  C  C98  1  0.84793000  0.68307000  0.85347000  1
  C  C99  1  0.01640000  0.50180000  0.81320000  1
  C  C100  1  0.49820000  0.51460000  0.81320000  1
  C  C101  1  0.48540000  0.98360000  0.81320000  1
  C  C102  1  0.34973000  0.16847000  0.47987000  1
  C  C103  1  0.83153000  0.18127000  0.47987000  1
  C  C104  1  0.81873000  0.65027000  0.47987000  1
  C  C105  1  0.68307000  0.83513000  0.14653000  1
  C  C106  1  0.16487000  0.84793000  0.14653000  1
  C  C107  1  0.15207000  0.31693000  0.14653000  1
  O  O108  1  0.03190000  0.59250000  0.57820000  1
  O  O109  1  0.40750000  0.43940000  0.57820000  1
  O  O110  1  0.56060000  0.96810000  0.57820000  1
  O  O111  1  0.69857000  0.92583000  0.91153000  1
  O  O112  1  0.07417000  0.77273000  0.91153000  1
  O  O113  1  0.22727000  0.30143000  0.91153000  1
  O  O114  1  0.36523000  0.25917000  0.24487000  1
  O  O115  1  0.74083000  0.10607000  0.24487000  1
  O  O116  1  0.89393000  0.63477000  0.24487000  1
  O  O117  1  0.96810000  0.40750000  0.42180000  1
  O  O118  1  0.59250000  0.56060000  0.42180000  1
  O  O119  1  0.43940000  0.03190000  0.42180000  1
  O  O120  1  0.30143000  0.07417000  0.08847000  1
  O  O121  1  0.92583000  0.22727000  0.08847000  1
  O  O122  1  0.77273000  0.69857000  0.08847000  1
  O  O123  1  0.63477000  0.74083000  0.75513000  1
  O  O124  1  0.25917000  0.89393000  0.75513000  1
  O  O125  1  0.10607000  0.36523000  0.75513000  1
  O  O126  1  0.00510000  0.63250000  0.80620000  1
  O  O127  1  0.36750000  0.37260000  0.80620000  1
  O  O128  1  0.62740000  0.99490000  0.80620000  1
  O  O129  1  0.67177000  0.96583000  0.13953000  1
  O  O130  1  0.03417000  0.70593000  0.13953000  1
  O  O131  1  0.29407000  0.32823000  0.13953000  1
  O  O132  1  0.33843000  0.29917000  0.47287000  1
  O  O133  1  0.70083000  0.03927000  0.47287000  1
  O  O134  1  0.96073000  0.66157000  0.47287000  1
  O  O135  1  0.99490000  0.36750000  0.19380000  1
  O  O136  1  0.63250000  0.62740000  0.19380000  1
  O  O137  1  0.37260000  0.00510000  0.19380000  1
  O  O138  1  0.32823000  0.03417000  0.86047000  1
  O  O139  1  0.96583000  0.29407000  0.86047000  1
  O  O140  1  0.70593000  0.67177000  0.86047000  1
  O  O141  1  0.66157000  0.70083000  0.52713000  1
  O  O142  1  0.29917000  0.96073000  0.52713000  1
  O  O143  1  0.03927000  0.33843000  0.52713000  1
  O  O144  1  0.97760000  0.58500000  0.15540000  1
  O  O145  1  0.41500000  0.39260000  0.15540000  1
  O  O146  1  0.60740000  0.02240000  0.15540000  1
  O  O147  1  0.64427000  0.91833000  0.48873000  1
  O  O148  1  0.08167000  0.72593000  0.48873000  1
  O  O149  1  0.27407000  0.35573000  0.48873000  1
  O  O150  1  0.31093000  0.25167000  0.82207000  1
  O  O151  1  0.74833000  0.05927000  0.82207000  1
  O  O152  1  0.94073000  0.68907000  0.82207000  1
  O  O153  1  0.02240000  0.41500000  0.84460000  1
  O  O154  1  0.58500000  0.60740000  0.84460000  1
  O  O155  1  0.39260000  0.97760000  0.84460000  1
  O  O156  1  0.35573000  0.08167000  0.51127000  1
  O  O157  1  0.91833000  0.27407000  0.51127000  1
  O  O158  1  0.72593000  0.64427000  0.51127000  1
  O  O159  1  0.68907000  0.74833000  0.17793000  1
  O  O160  1  0.25167000  0.94073000  0.17793000  1
  O  O161  1  0.05927000  0.31093000  0.17793000  1
