
##########################################################################
#               Crystallographic Information Format file
#               Produced by PyCifRW module
#
#  This is a CIF file.  CIF has been adopted by the International
#  Union of Crystallography as the standard for data archiving and
#  transmission.
#
#  For information on this file format, follow the CIF links at
#  http://www.iucr.org
##########################################################################

data_image0

_cell_length_a                          26.2958
_cell_length_b                          26.2958
_cell_length_c                          7.05164
_cell_angle_alpha                       90.0
_cell_angle_beta                        90.0
_cell_angle_gamma                       120.0
_symmetry_int_tables_number             1
loop_
  _symmetry_equiv_pos_as_xyz
         'x, y, z'
loop_
  _atom_site_label
  _atom_site_fract_x
  _atom_site_fract_y
  _atom_site_fract_z
  _atom_site_type_symbol
         Mn        0.9497    0.6389    0.028     Mn
         Mn        0.3611    0.3108    0.028     Mn
         Mn        0.6892    0.0503    0.028     Mn
         Mn        0.61637   0.97223   0.36133   Mn
         Mn        0.02777   0.64413   0.36133   Mn
         Mn        0.35587   0.38363   0.36133   Mn
         Mn        0.28303   0.30557   0.69467   Mn
         Mn        0.69443   0.97747   0.69467   Mn
         Mn        0.02253   0.71697   0.69467   Mn
         Mn        0.0503    0.3611    0.972     Mn
         Mn        0.6389    0.6892    0.972     Mn
         Mn        0.3108    0.9497    0.972     Mn
         Mn        0.38363   0.02777   0.63867   Mn
         Mn        0.97223   0.35587   0.63867   Mn
         Mn        0.64413   0.61637   0.63867   Mn
         Mn        0.71697   0.69443   0.30533   Mn
         Mn        0.30557   0.02253   0.30533   Mn
         Mn        0.97747   0.28303   0.30533   Mn
         C         0.0134    0.5921    0.7458    C
         C         0.4079    0.4213    0.7458    C
         C         0.5787    0.9866    0.7458    C
         C         0.68007   0.92543   0.07913   C
         C         0.07457   0.75463   0.07913   C
         C         0.24537   0.31993   0.07913   C
         C         0.34673   0.25877   0.41247   C
         C         0.74123   0.08797   0.41247   C
         C         0.91203   0.65327   0.41247   C
         C         0.9866    0.4079    0.2542    C
         C         0.5921    0.5787    0.2542    C
         C         0.4213    0.0134    0.2542    C
         C         0.31993   0.07457   0.92087   C
         C         0.92543   0.24537   0.92087   C
         C         0.75463   0.68007   0.92087   C
         C         0.65327   0.74123   0.58753   C
         C         0.25877   0.91203   0.58753   C
         C         0.08797   0.34673   0.58753   C
         C         0.0057    0.5458    0.8791    C
         C         0.4542    0.4599    0.8791    C
         C         0.5401    0.9943    0.8791    C
         C         0.67237   0.87913   0.21243   C
         C         0.12087   0.79323   0.21243   C
         C         0.20677   0.32763   0.21243   C
         C         0.33903   0.21247   0.54577   C
         C         0.78753   0.12657   0.54577   C
         C         0.87343   0.66097   0.54577   C
         C         0.9943    0.4542    0.1209    C
         C         0.5458    0.5401    0.1209    C
         C         0.4599    0.0057    0.1209    C
         C         0.32763   0.12087   0.78757   C
         C         0.87913   0.20677   0.78757   C
         C         0.79323   0.67237   0.78757   C
         C         0.66097   0.78753   0.45423   C
         C         0.21247   0.87343   0.45423   C
         C         0.12657   0.33903   0.45423   C
         C         0.9904    0.5455    0.0751    C
         C         0.4545    0.4449    0.0751    C
         C         0.5551    0.0096    0.0751    C
         C         0.65707   0.87883   0.40843   C
         C         0.12117   0.77823   0.40843   C
         C         0.22177   0.34293   0.40843   C
         C         0.32373   0.21217   0.74177   C
         C         0.78783   0.11157   0.74177   C
         C         0.88843   0.67627   0.74177   C
         C         0.0096    0.4545    0.9249    C
         C         0.5455    0.5551    0.9249    C
         C         0.4449    0.9904    0.9249    C
         C         0.34293   0.12117   0.59157   C
         C         0.87883   0.22177   0.59157   C
         C         0.77823   0.65707   0.59157   C
         C         0.67627   0.78783   0.25823   C
         C         0.21217   0.88843   0.25823   C
         C         0.11157   0.32373   0.25823   C
         C         0.9836    0.4982    0.1868    C
         C         0.5018    0.4854    0.1868    C
         C         0.5146    0.0164    0.1868    C
         C         0.65027   0.83153   0.52013   C
         C         0.16847   0.81873   0.52013   C
         C         0.18127   0.34973   0.52013   C
         C         0.31693   0.16487   0.85347   C
         C         0.83513   0.15207   0.85347   C
         C         0.84793   0.68307   0.85347   C
         C         0.0164    0.5018    0.8132    C
         C         0.4982    0.5146    0.8132    C
         C         0.4854    0.9836    0.8132    C
         C         0.34973   0.16847   0.47987   C
         C         0.83153   0.18127   0.47987   C
         C         0.81873   0.65027   0.47987   C
         C         0.68307   0.83513   0.14653   C
         C         0.16487   0.84793   0.14653   C
         C         0.15207   0.31693   0.14653   C
         H         0.9727    0.4976    0.3376    H
         H         0.5024    0.4751    0.3376    H
         H         0.5249    0.0273    0.3376    H
         H         0.63937   0.83093   0.67093   H
         H         0.16907   0.80843   0.67093   H
         H         0.19157   0.36063   0.67093   H
         H         0.30603   0.16427   0.00427   H
         H         0.83573   0.14177   0.00427   H
         H         0.85823   0.69397   0.00427   H
         H         0.0273    0.5024    0.6624    H
         H         0.4976    0.5249    0.6624    H
         H         0.4751    0.9727    0.6624    H
         H         0.36063   0.16907   0.32907   H
         H         0.83093   0.19157   0.32907   H
         H         0.80843   0.63937   0.32907   H
         H         0.69397   0.83573   0.99573   H
         H         0.16427   0.85823   0.99573   H
         H         0.14177   0.30603   0.99573   H
         O         0.0319    0.5925    0.5782    O
         O         0.4075    0.4394    0.5782    O
         O         0.5606    0.9681    0.5782    O
         O         0.69857   0.92583   0.91153   O
         O         0.07417   0.77273   0.91153   O
         O         0.22727   0.30143   0.91153   O
         O         0.36523   0.25917   0.24487   O
         O         0.74083   0.10607   0.24487   O
         O         0.89393   0.63477   0.24487   O
         O         0.9681    0.4075    0.4218    O
         O         0.5925    0.5606    0.4218    O
         O         0.4394    0.0319    0.4218    O
         O         0.30143   0.07417   0.08847   O
         O         0.92583   0.22727   0.08847   O
         O         0.77273   0.69857   0.08847   O
         O         0.63477   0.74083   0.75513   O
         O         0.25917   0.89393   0.75513   O
         O         0.10607   0.36523   0.75513   O
         O         0.0051    0.6325    0.8062    O
         O         0.3675    0.3726    0.8062    O
         O         0.6274    0.9949    0.8062    O
         O         0.67177   0.96583   0.13953   O
         O         0.03417   0.70593   0.13953   O
         O         0.29407   0.32823   0.13953   O
         O         0.33843   0.29917   0.47287   O
         O         0.70083   0.03927   0.47287   O
         O         0.96073   0.66157   0.47287   O
         O         0.9949    0.3675    0.1938    O
         O         0.6325    0.6274    0.1938    O
         O         0.3726    0.0051    0.1938    O
         O         0.32823   0.03417   0.86047   O
         O         0.96583   0.29407   0.86047   O
         O         0.70593   0.67177   0.86047   O
         O         0.66157   0.70083   0.52713   O
         O         0.29917   0.96073   0.52713   O
         O         0.03927   0.33843   0.52713   O
         O         0.9776    0.585     0.1554    O
         O         0.415     0.3926    0.1554    O
         O         0.6074    0.0224    0.1554    O
         O         0.64427   0.91833   0.48873   O
         O         0.08167   0.72593   0.48873   O
         O         0.27407   0.35573   0.48873   O
         O         0.31093   0.25167   0.82207   O
         O         0.74833   0.05927   0.82207   O
         O         0.94073   0.68907   0.82207   O
         O         0.0224    0.415     0.8446    O
         O         0.585     0.6074    0.8446    O
         O         0.3926    0.9776    0.8446    O
         O         0.35573   0.08167   0.51127   O
         O         0.91833   0.27407   0.51127   O
         O         0.72593   0.64427   0.51127   O
         O         0.68907   0.74833   0.17793   O
         O         0.25167   0.94073   0.17793   O
         O         0.05927   0.31093   0.17793   O
