# generated using pymatgen
data_MnHC4O3
_symmetry_space_group_name_H-M   'P 1'
_cell_length_a   7.04770000
_cell_length_b   15.38385352
_cell_length_c   15.38385352
_cell_angle_alpha   117.71155035
_cell_angle_beta   98.78387617
_cell_angle_gamma   98.78387617
_symmetry_Int_Tables_number   1
_chemical_formula_structural   MnHC4O3
_chemical_formula_sum   'Mn6 H6 C24 O18'
_cell_volume   1410.78477079
_cell_formula_units_Z   6
loop_
 _symmetry_equiv_pos_site_id
 _symmetry_equiv_pos_as_xyz
  1  'x, y, z'
loop_
 _atom_site_type_symbol
 _atom_site_label
 _atom_site_symmetry_multiplicity
 _atom_site_fract_x
 _atom_site_fract_y
 _atom_site_fract_z
 _atom_site_occupancy
  C  C0  1  0.73870000  0.39310000  0.56270000  1.0
  C  C1  1  0.17600000  0.43730000  0.83040000  1.0
  C  C2  1  0.34560000  0.16960000  0.60690000  1.0
  C  C3  1  0.26130000  0.60690000  0.43730000  1.0
  C  C4  1  0.82400000  0.56270000  0.16960000  1.0
  C  C5  1  0.65440000  0.83040000  0.39310000  1.0
  C  C6  1  0.61710000  0.45230000  0.53440000  1.0
  C  C7  1  0.08270000  0.46560000  0.91790000  1.0
  C  C8  1  0.16480000  0.08210000  0.54770000  1.0
  C  C9  1  0.38290000  0.54770000  0.46560000  1.0
  C  C10  1  0.91730000  0.53440000  0.08210000  1.0
  C  C11  1  0.83520000  0.91790000  0.45230000  1.0
  C  C12  1  0.43290000  0.46670000  0.56620000  1.0
  C  C13  1  0.86670000  0.43380000  0.90050000  1.0
  C  C14  1  0.96620000  0.09950000  0.53330000  1.0
  C  C15  1  0.56710000  0.53330000  0.43380000  1.0
  C  C16  1  0.13330000  0.56620000  0.09950000  1.0
  C  C17  1  0.03380000  0.90050000  0.46670000  1.0
  C  C18  1  0.33400000  0.52050000  0.53640000  1.0
  C  C19  1  0.79760000  0.46360000  0.98410000  1.0
  C  C20  1  0.81350000  0.01590000  0.47950000  1.0
  C  C21  1  0.66600000  0.47950000  0.46360000  1.0
  C  C22  1  0.20240000  0.53640000  0.01590000  1.0
  C  C23  1  0.18650000  0.98410000  0.52050000  1.0
  H  H24  1  0.20340000  0.52770000  0.55200000  1.0
  H  H25  1  0.65140000  0.44800000  0.97570000  1.0
  H  H26  1  0.67570000  0.02430000  0.47230000  1.0
  H  H27  1  0.79660000  0.47230000  0.44800000  1.0
  H  H28  1  0.34860000  0.55200000  0.02430000  1.0
  H  H29  1  0.32430000  0.97570000  0.52770000  1.0
  Mn  Mn30  1  0.52780000  0.41020000  0.74600000  1.0
  Mn  Mn31  1  0.78180000  0.25400000  0.66420000  1.0
  Mn  Mn32  1  0.11760000  0.33580000  0.58980000  1.0
  Mn  Mn33  1  0.47220000  0.58980000  0.25400000  1.0
  Mn  Mn34  1  0.21820000  0.74600000  0.33580000  1.0
  Mn  Mn35  1  0.88240000  0.66420000  0.41020000  1.0
  O  O36  1  0.68840000  0.36250000  0.62150000  1.0
  O  O37  1  0.06690000  0.37850000  0.74100000  1.0
  O  O38  1  0.32590000  0.25900000  0.63750000  1.0
  O  O39  1  0.31160000  0.63750000  0.37850000  1.0
  O  O40  1  0.93310000  0.62150000  0.25900000  1.0
  O  O41  1  0.67410000  0.74100000  0.36250000  1.0
  O  O42  1  0.89120000  0.37160000  0.52810000  1.0
  O  O43  1  0.36310000  0.47190000  0.84350000  1.0
  O  O44  1  0.51960000  0.15650000  0.62840000  1.0
  O  O45  1  0.10880000  0.62840000  0.47190000  1.0
  O  O46  1  0.63690000  0.52810000  0.15650000  1.0
  O  O47  1  0.48040000  0.84350000  0.37160000  1.0
  O  O48  1  0.36860000  0.43430000  0.62890000  1.0
  O  O49  1  0.73970000  0.37110000  0.80540000  1.0
  O  O50  1  0.93430000  0.19460000  0.56570000  1.0
  O  O51  1  0.63140000  0.56570000  0.37110000  1.0
  O  O52  1  0.26030000  0.62890000  0.19460000  1.0
  O  O53  1  0.06570000  0.80540000  0.43430000  1.0
