# generated using pymatgen
data_Cu2H14C17(N5O2)2
_symmetry_space_group_name_H-M   'P 1'
_cell_length_a   9.25530000
_cell_length_b   9.35370000
_cell_length_c   13.87350000
_cell_angle_alpha   109.70100000
_cell_angle_beta   101.75800000
_cell_angle_gamma   90.00000000
_symmetry_Int_Tables_number   1
_chemical_formula_structural   Cu2H14C17(N5O2)2
_chemical_formula_sum   'Cu4 H28 C34 N20 O8'
_cell_volume   1103.93792297
_cell_formula_units_Z   2
loop_
 _symmetry_equiv_pos_site_id
 _symmetry_equiv_pos_as_xyz
  1  'x, y, z'
loop_
 _atom_site_type_symbol
 _atom_site_label
 _atom_site_symmetry_multiplicity
 _atom_site_fract_x
 _atom_site_fract_y
 _atom_site_fract_z
 _atom_site_occupancy
  Cu  Cu0  1  0.03860000  0.02030000  0.38460000  1.0
  Cu  Cu1  1  0.46140000  0.63570000  0.61540000  1.0
  Cu  Cu2  1  0.96140000  0.97970000  0.61540000  1.0
  Cu  Cu3  1  0.53860000  0.36430000  0.38460000  1.0
  H  H4  1  0.82334000  0.93081000  0.18072000  1.0
  H  H5  1  0.68184000  0.72310000  0.04864000  1.0
  H  H6  1  0.81792000  0.46746000  0.23376000  1.0
  H  H7  1  0.95505000  0.68382000  0.35980000  1.0
  H  H8  1  0.58907000  0.46518000  0.99258000  1.0
  H  H9  1  0.58465000  0.39326000  0.07648000  1.0
  H  H10  1  0.80901000  0.26485000  0.04674000  1.0
  H  H11  1  0.67666000  0.75009000  0.81928000  1.0
  H  H12  1  0.81816000  0.67446000  0.95136000  1.0
  H  H13  1  0.68208000  0.23370000  0.76624000  1.0
  H  H14  1  0.54495000  0.32402000  0.64020000  1.0
  H  H15  1  0.91093000  0.47260000  0.00742000  1.0
  H  H16  1  0.91535000  0.31678000  0.92352000  1.0
  H  H17  1  0.69099000  0.21811000  0.95326000  1.0
  H  H18  1  0.17666000  0.06919000  0.81928000  1.0
  H  H19  1  0.31816000  0.27690000  0.95136000  1.0
  H  H20  1  0.18208000  0.53254000  0.76624000  1.0
  H  H21  1  0.04495000  0.31618000  0.64020000  1.0
  H  H22  1  0.41093000  0.53482000  0.00742000  1.0
  H  H23  1  0.41535000  0.60674000  0.92352000  1.0
  H  H24  1  0.19099000  0.73515000  0.95326000  1.0
  H  H25  1  0.32334000  0.24991000  0.18072000  1.0
  H  H26  1  0.18184000  0.32554000  0.04864000  1.0
  H  H27  1  0.31792000  0.76630000  0.23376000  1.0
  H  H28  1  0.45505000  0.67598000  0.35980000  1.0
  H  H29  1  0.08907000  0.52740000  0.99258000  1.0
  H  H30  1  0.08465000  0.68322000  0.07648000  1.0
  H  H31  1  0.30901000  0.78189000  0.04674000  1.0
  C  C32  1  0.76960000  0.25680000  0.30160000  1.0
  C  C33  1  0.77500000  0.20250000  0.39200000  1.0
  C  C34  1  0.82190000  0.83460000  0.19140000  1.0
  C  C35  1  0.73720000  0.71240000  0.11200000  1.0
  C  C36  1  0.73630000  0.57390000  0.12860000  1.0
  C  C37  1  0.81740000  0.56250000  0.22140000  1.0
  C  C38  1  0.89880000  0.69170000  0.29580000  1.0
  C  C39  1  0.64687000  0.43600000  0.04600000  1.0
  C  C40  1  0.73040000  0.95520000  0.69840000  1.0
  C  C41  1  0.72500000  0.81050000  0.60800000  1.0
  C  C42  1  0.67810000  0.64320000  0.80860000  1.0
  C  C43  1  0.76280000  0.60040000  0.88800000  1.0
  C  C44  1  0.76370000  0.44530000  0.87140000  1.0
  C  C45  1  0.68260000  0.34110000  0.77860000  1.0
  C  C46  1  0.60120000  0.39590000  0.70420000  1.0
  C  C47  1  0.85313000  0.39000000  0.95400000  1.0
  C  C48  1  0.23040000  0.74320000  0.69840000  1.0
  C  C49  1  0.22500000  0.79750000  0.60800000  1.0
  C  C50  1  0.17810000  0.16540000  0.80860000  1.0
  C  C51  1  0.26280000  0.28760000  0.88800000  1.0
  C  C52  1  0.26370000  0.42610000  0.87140000  1.0
  C  C53  1  0.18260000  0.43750000  0.77860000  1.0
  C  C54  1  0.10120000  0.30830000  0.70420000  1.0
  C  C55  1  0.35313000  0.56400000  0.95400000  1.0
  C  C56  1  0.26960000  0.04480000  0.30160000  1.0
  C  C57  1  0.27500000  0.18950000  0.39200000  1.0
  C  C58  1  0.32190000  0.35680000  0.19140000  1.0
  C  C59  1  0.23720000  0.39960000  0.11200000  1.0
  C  C60  1  0.23630000  0.55470000  0.12860000  1.0
  C  C61  1  0.31740000  0.65890000  0.22140000  1.0
  C  C62  1  0.39880000  0.60410000  0.29580000  1.0
  C  C63  1  0.14687000  0.61000000  0.04600000  1.0
  C  C64  1  0.75000000  0.32000000  0.00000000  1.0
  C  C65  1  0.25000000  0.68000000  0.00000000  1.0
  N  N66  1  0.67580000  0.24640000  0.45080000  1.0
  N  N67  1  0.70640000  0.18270000  0.52540000  1.0
  N  N68  1  0.82280000  0.10190000  0.50980000  1.0
  N  N69  1  0.86600000  0.11350000  0.42700000  1.0
  N  N70  1  0.90200000  0.82740000  0.28200000  1.0
  N  N71  1  0.82420000  0.79560000  0.54920000  1.0
  N  N72  1  0.79360000  0.65730000  0.47460000  1.0
  N  N73  1  0.67720000  0.59210000  0.49020000  1.0
  N  N74  1  0.63400000  0.68650000  0.57300000  1.0
  N  N75  1  0.59800000  0.54540000  0.71800000  1.0
  N  N76  1  0.32420000  0.75360000  0.54920000  1.0
  N  N77  1  0.29360000  0.81730000  0.47460000  1.0
  N  N78  1  0.17720000  0.89810000  0.49020000  1.0
  N  N79  1  0.13400000  0.88650000  0.57300000  1.0
  N  N80  1  0.09800000  0.17260000  0.71800000  1.0
  N  N81  1  0.17580000  0.20440000  0.45080000  1.0
  N  N82  1  0.20640000  0.34270000  0.52540000  1.0
  N  N83  1  0.32280000  0.40790000  0.50980000  1.0
  N  N84  1  0.36600000  0.31350000  0.42700000  1.0
  N  N85  1  0.40200000  0.45460000  0.28200000  1.0
  O  O86  1  0.86640000  0.22820000  0.25040000  1.0
  O  O87  1  0.65500000  0.32950000  0.28900000  1.0
  O  O88  1  0.63360000  0.97780000  0.74960000  1.0
  O  O89  1  0.84500000  0.04050000  0.71100000  1.0
  O  O90  1  0.13360000  0.77180000  0.74960000  1.0
  O  O91  1  0.34500000  0.67050000  0.71100000  1.0
  O  O92  1  0.36640000  0.02220000  0.25040000  1.0
  O  O93  1  0.15500000  0.95950000  0.28900000  1.0
