# generated using pymatgen
data_CuPC2O3
_symmetry_space_group_name_H-M   'P 1'
_cell_length_a   20.03050000
_cell_length_b   6.67130000
_cell_length_c   4.39960000
_cell_angle_alpha   90.00000000
_cell_angle_beta   91.37900000
_cell_angle_gamma   90.00000000
_symmetry_Int_Tables_number   1
_chemical_formula_structural   CuPC2O3
_chemical_formula_sum   'Cu4 P4 C8 O12'
_cell_volume   587.74596290
_cell_formula_units_Z   4
loop_
 _symmetry_equiv_pos_site_id
 _symmetry_equiv_pos_as_xyz
  1  'x, y, z'
loop_
 _atom_site_type_symbol
 _atom_site_label
 _atom_site_symmetry_multiplicity
 _atom_site_fract_x
 _atom_site_fract_y
 _atom_site_fract_z
 _atom_site_occupancy
  Cu  Cu0  1  0.25000000  0.25000000  0.00000000  1.0
  Cu  Cu1  1  0.75000000  0.25000000  0.00000000  1.0
  Cu  Cu2  1  0.75000000  0.75000000  0.00000000  1.0
  Cu  Cu3  1  0.25000000  0.75000000  0.00000000  1.0
  P  P4  1  0.17500000  0.50000000  0.47880000  1.0
  P  P5  1  0.67500000  0.00000000  0.47880000  1.0
  P  P6  1  0.82500000  0.50000000  0.52120000  1.0
  P  P7  1  0.32500000  0.00000000  0.52120000  1.0
  C  C8  1  0.09610000  0.50000000  0.66700000  1.0
  C  C9  1  0.03690000  0.50000000  0.43800000  1.0
  C  C10  1  0.59610000  0.00000000  0.66700000  1.0
  C  C11  1  0.53690000  0.00000000  0.43800000  1.0
  C  C12  1  0.90390000  0.50000000  0.33300000  1.0
  C  C13  1  0.96310000  0.50000000  0.56200000  1.0
  C  C14  1  0.40390000  0.00000000  0.33300000  1.0
  C  C15  1  0.46310000  0.00000000  0.56200000  1.0
  O  O16  1  0.18150000  0.30400000  0.30080000  1.0
  O  O17  1  0.68150000  0.80400000  0.30080000  1.0
  O  O18  1  0.81850000  0.30400000  0.69920000  1.0
  O  O19  1  0.31850000  0.80400000  0.69920000  1.0
  O  O20  1  0.81850000  0.69600000  0.69920000  1.0
  O  O21  1  0.31850000  0.19600000  0.69920000  1.0
  O  O22  1  0.18150000  0.69600000  0.30080000  1.0
  O  O23  1  0.68150000  0.19600000  0.30080000  1.0
  O  O24  1  0.27230000  0.00000000  0.25300000  1.0
  O  O25  1  0.77230000  0.50000000  0.25300000  1.0
  O  O26  1  0.72770000  0.00000000  0.74700000  1.0
  O  O27  1  0.22770000  0.50000000  0.74700000  1.0
