# generated using pymatgen
data_CuH3C7NO4
_symmetry_space_group_name_H-M   'P 1'
_cell_length_a   7.33610000
_cell_length_b   10.74960000
_cell_length_c   14.02800000
_cell_angle_alpha   90.00000000
_cell_angle_beta   90.77800000
_cell_angle_gamma   90.00000000
_symmetry_Int_Tables_number   1
_chemical_formula_structural   CuH3C7NO4
_chemical_formula_sum   'Cu4 H12 C28 N4 O16'
_cell_volume   1106.14806812
_cell_formula_units_Z   4
loop_
 _symmetry_equiv_pos_site_id
 _symmetry_equiv_pos_as_xyz
  1  'x, y, z'
loop_
 _atom_site_type_symbol
 _atom_site_label
 _atom_site_symmetry_multiplicity
 _atom_site_fract_x
 _atom_site_fract_y
 _atom_site_fract_z
 _atom_site_occupancy
  Cu  Cu0  1  0.91107000  0.90790000  0.88013000  1.0
  Cu  Cu1  1  0.08893000  0.40790000  0.61987000  1.0
  Cu  Cu2  1  0.08893000  0.09210000  0.11987000  1.0
  Cu  Cu3  1  0.91107000  0.59210000  0.38013000  1.0
  H  H4  1  0.36890000  0.75300000  0.81120000  1.0
  H  H5  1  0.46560000  0.45420000  0.58130000  1.0
  H  H6  1  0.12990000  0.63420000  0.75040000  1.0
  H  H7  1  0.63110000  0.25300000  0.68880000  1.0
  H  H8  1  0.53440000  0.95420000  0.91870000  1.0
  H  H9  1  0.87010000  0.13420000  0.74960000  1.0
  H  H10  1  0.63110000  0.24700000  0.18880000  1.0
  H  H11  1  0.53440000  0.54580000  0.41870000  1.0
  H  H12  1  0.87010000  0.36580000  0.24960000  1.0
  H  H13  1  0.36890000  0.74700000  0.31120000  1.0
  H  H14  1  0.46560000  0.04580000  0.08130000  1.0
  H  H15  1  0.12990000  0.86580000  0.25040000  1.0
  C  C16  1  0.72420000  0.75380000  0.76670000  1.0
  C  C17  1  0.56790000  0.67400000  0.73100000  1.0
  C  C18  1  0.59370000  0.58650000  0.65940000  1.0
  C  C19  1  0.39180000  0.69170000  0.76400000  1.0
  C  C20  1  0.44670000  0.51590000  0.62860000  1.0
  C  C21  1  0.77460000  0.55910000  0.61360000  1.0
  C  C22  1  0.25000000  0.62000000  0.72820000  1.0
  C  C23  1  0.27580000  0.25380000  0.73330000  1.0
  C  C24  1  0.43210000  0.17400000  0.76900000  1.0
  C  C25  1  0.40630000  0.08650000  0.84060000  1.0
  C  C26  1  0.60820000  0.19170000  0.73600000  1.0
  C  C27  1  0.55330000  0.01590000  0.87140000  1.0
  C  C28  1  0.22540000  0.05910000  0.88640000  1.0
  C  C29  1  0.75000000  0.12000000  0.77180000  1.0
  C  C30  1  0.27580000  0.24620000  0.23330000  1.0
  C  C31  1  0.43210000  0.32600000  0.26900000  1.0
  C  C32  1  0.40630000  0.41350000  0.34060000  1.0
  C  C33  1  0.60820000  0.30830000  0.23600000  1.0
  C  C34  1  0.55330000  0.48410000  0.37140000  1.0
  C  C35  1  0.22540000  0.44090000  0.38640000  1.0
  C  C36  1  0.75000000  0.38000000  0.27180000  1.0
  C  C37  1  0.72420000  0.74620000  0.26670000  1.0
  C  C38  1  0.56790000  0.82600000  0.23100000  1.0
  C  C39  1  0.59370000  0.91350000  0.15940000  1.0
  C  C40  1  0.39180000  0.80830000  0.26400000  1.0
  C  C41  1  0.44670000  0.98410000  0.12860000  1.0
  C  C42  1  0.77460000  0.94090000  0.11360000  1.0
  C  C43  1  0.25000000  0.88000000  0.22820000  1.0
  N  N44  1  0.27780000  0.53110000  0.66310000  1.0
  N  N45  1  0.72220000  0.03110000  0.83690000  1.0
  N  N46  1  0.72220000  0.46890000  0.33690000  1.0
  N  N47  1  0.27780000  0.96890000  0.16310000  1.0
  O  O48  1  0.73190000  0.77040000  0.85700000  1.0
  O  O49  1  0.78860000  0.57810000  0.52762000  1.0
  O  O50  1  0.89420000  0.51200000  0.66897000  1.0
  O  O51  1  0.82880000  0.79780000  0.70820000  1.0
  O  O52  1  0.26810000  0.27040000  0.64300000  1.0
  O  O53  1  0.21140000  0.07810000  0.97238000  1.0
  O  O54  1  0.10580000  0.01200000  0.83103000  1.0
  O  O55  1  0.17120000  0.29780000  0.79180000  1.0
  O  O56  1  0.26810000  0.22960000  0.14300000  1.0
  O  O57  1  0.21140000  0.42190000  0.47238000  1.0
  O  O58  1  0.10580000  0.48800000  0.33103000  1.0
  O  O59  1  0.17120000  0.20220000  0.29180000  1.0
  O  O60  1  0.73190000  0.72960000  0.35700000  1.0
  O  O61  1  0.78860000  0.92190000  0.02762000  1.0
  O  O62  1  0.89420000  0.98800000  0.16897000  1.0
  O  O63  1  0.82880000  0.70220000  0.20820000  1.0
