# generated using pymatgen
data_Zn2P3H7C3NClO9
_symmetry_space_group_name_H-M   'P 1'
_cell_length_a   8.13000000
_cell_length_b   22.35800000
_cell_length_c   10.53800000
_cell_angle_alpha   90.00000000
_cell_angle_beta   112.35700000
_cell_angle_gamma   90.00000000
_symmetry_Int_Tables_number   1
_chemical_formula_structural   Zn2P3H7C3NClO9
_chemical_formula_sum   'Zn8 P12 H28 C12 N4 Cl4 O36'
_cell_volume   1771.51334722
_cell_formula_units_Z   4
loop_
 _symmetry_equiv_pos_site_id
 _symmetry_equiv_pos_as_xyz
  1  'x, y, z'
loop_
 _atom_site_type_symbol
 _atom_site_label
 _atom_site_symmetry_multiplicity
 _atom_site_fract_x
 _atom_site_fract_y
 _atom_site_fract_z
 _atom_site_occupancy
  Zn  Zn0  1  0.84223000  0.19393000  0.41381000  1.0
  Zn  Zn1  1  0.28353000  0.03194000  0.33221000  1.0
  Zn  Zn2  1  0.65777000  0.69393000  0.08619000  1.0
  Zn  Zn3  1  0.21647000  0.53194000  0.16779000  1.0
  Zn  Zn4  1  0.15777000  0.80607000  0.58619000  1.0
  Zn  Zn5  1  0.71647000  0.96806000  0.66779000  1.0
  Zn  Zn6  1  0.34223000  0.30607000  0.91381000  1.0
  Zn  Zn7  1  0.78353000  0.46806000  0.83221000  1.0
  P  P8  1  0.00350000  0.14788000  0.20862000  1.0
  P  P9  1  0.69687000  0.07216000  0.46679000  1.0
  P  P10  1  0.48756000  0.22974000  0.19198000  1.0
  P  P11  1  0.49650000  0.64788000  0.29138000  1.0
  P  P12  1  0.80313000  0.57216000  0.03321000  1.0
  P  P13  1  0.01244000  0.72974000  0.30802000  1.0
  P  P14  1  0.99650000  0.85212000  0.79138000  1.0
  P  P15  1  0.30313000  0.92784000  0.53321000  1.0
  P  P16  1  0.51244000  0.77026000  0.80802000  1.0
  P  P17  1  0.50350000  0.35212000  0.70862000  1.0
  P  P18  1  0.19687000  0.42784000  0.96679000  1.0
  P  P19  1  0.98756000  0.27026000  0.69198000  1.0
  H  H20  1  0.23490000  0.22060000  0.16410000  1.0
  H  H21  1  0.70670000  0.16670000  0.06950000  1.0
  H  H22  1  0.74210000  0.09750000  0.07790000  1.0
  H  H23  1  0.83560000  0.05420000  0.31320000  1.0
  H  H24  1  0.63090000  0.04110000  0.24140000  1.0
  H  H25  1  0.43990000  0.13460000  0.09300000  1.0
  H  H26  1  0.44200000  0.13090000  0.24250000  1.0
  H  H27  1  0.26510000  0.72060000  0.33590000  1.0
  H  H28  1  0.79330000  0.66666667  0.43050000  1.0
  H  H29  1  0.75790000  0.59750000  0.42210000  1.0
  H  H30  1  0.66440000  0.55420000  0.18680000  1.0
  H  H31  1  0.86910000  0.54110000  0.25860000  1.0
  H  H32  1  0.06010000  0.63460000  0.40700000  1.0
  H  H33  1  0.05800000  0.63090000  0.25750000  1.0
  H  H34  1  0.76510000  0.77940000  0.83590000  1.0
  H  H35  1  0.29330000  0.83330000  0.93050000  1.0
  H  H36  1  0.25790000  0.90250000  0.92210000  1.0
  H  H37  1  0.16440000  0.94580000  0.68680000  1.0
  H  H38  1  0.36910000  0.95890000  0.75860000  1.0
  H  H39  1  0.56010000  0.86540000  0.90700000  1.0
  H  H40  1  0.55800000  0.86910000  0.75750000  1.0
  H  H41  1  0.73490000  0.27940000  0.66410000  1.0
  H  H42  1  0.20670000  0.33333333  0.56950000  1.0
  H  H43  1  0.24210000  0.40250000  0.57790000  1.0
  H  H44  1  0.33560000  0.44580000  0.81320000  1.0
  H  H45  1  0.13090000  0.45890000  0.74140000  1.0
  H  H46  1  0.93990000  0.36540000  0.59300000  1.0
  H  H47  1  0.94200000  0.36910000  0.74250000  1.0
  C  C48  1  0.76460000  0.13410000  0.13110000  1.0
  C  C49  1  0.71820000  0.06870000  0.30130000  1.0
  C  C50  1  0.50060000  0.14840000  0.18650000  1.0
  C  C51  1  0.73540000  0.63410000  0.36890000  1.0
  C  C52  1  0.78180000  0.56870000  0.19870000  1.0
  C  C53  1  0.99940000  0.64840000  0.31350000  1.0
  C  C54  1  0.23540000  0.86590000  0.86890000  1.0
  C  C55  1  0.28180000  0.93130000  0.69870000  1.0
  C  C56  1  0.49940000  0.85160000  0.81350000  1.0
  C  C57  1  0.26460000  0.36590000  0.63110000  1.0
  C  C58  1  0.21820000  0.43130000  0.80130000  1.0
  C  C59  1  0.00060000  0.35160000  0.68650000  1.0
  N  N60  1  0.69030000  0.12899000  0.23860000  1.0
  N  N61  1  0.80970000  0.62899000  0.26140000  1.0
  N  N62  1  0.30970000  0.87101000  0.76140000  1.0
  N  N63  1  0.19030000  0.37101000  0.73860000  1.0
  Cl  Cl64  1  0.30358000  0.97535000  0.15615000  1.0
  Cl  Cl65  1  0.19642000  0.47535000  0.34385000  1.0
  Cl  Cl66  1  0.69642000  0.02465000  0.84385000  1.0
  Cl  Cl67  1  0.80358000  0.52465000  0.65615000  1.0
  O  O68  1  0.10030000  0.08990000  0.24960000  1.0
  O  O69  1  0.04820000  0.18120000  0.09890000  1.0
  O  O70  1  0.02950000  0.18758000  0.33270000  1.0
  O  O71  1  0.78720000  0.01704000  0.54670000  1.0
  O  O72  1  0.79090000  0.13018000  0.53140000  1.0
  O  O73  1  0.49930000  0.07634000  0.44410000  1.0
  O  O74  1  0.31010000  0.24580000  0.20450000  1.0
  O  O75  1  0.63540000  0.24919000  0.32540000  1.0
  O  O76  1  0.50160000  0.25526000  0.06550000  1.0
  O  O77  1  0.39970000  0.58990000  0.25040000  1.0
  O  O78  1  0.45180000  0.68120000  0.40110000  1.0
  O  O79  1  0.47050000  0.68758000  0.16730000  1.0
  O  O80  1  0.71280000  0.51704000  0.95330000  1.0
  O  O81  1  0.70910000  0.63018000  0.96860000  1.0
  O  O82  1  0.00070000  0.57634000  0.05590000  1.0
  O  O83  1  0.18990000  0.74580000  0.29550000  1.0
  O  O84  1  0.86460000  0.74919000  0.17460000  1.0
  O  O85  1  0.99840000  0.75526000  0.43450000  1.0
  O  O86  1  0.89970000  0.91010000  0.75040000  1.0
  O  O87  1  0.95180000  0.81880000  0.90110000  1.0
  O  O88  1  0.97050000  0.81242000  0.66730000  1.0
  O  O89  1  0.21280000  0.98296000  0.45330000  1.0
  O  O90  1  0.20910000  0.86982000  0.46860000  1.0
  O  O91  1  0.50070000  0.92366000  0.55590000  1.0
  O  O92  1  0.68990000  0.75420000  0.79550000  1.0
  O  O93  1  0.36460000  0.75081000  0.67460000  1.0
  O  O94  1  0.49840000  0.74474000  0.93450000  1.0
  O  O95  1  0.60030000  0.41010000  0.74960000  1.0
  O  O96  1  0.54820000  0.31880000  0.59890000  1.0
  O  O97  1  0.52950000  0.31242000  0.83270000  1.0
  O  O98  1  0.28720000  0.48296000  0.04670000  1.0
  O  O99  1  0.29090000  0.36982000  0.03140000  1.0
  O  O100  1  0.99930000  0.42366000  0.94410000  1.0
  O  O101  1  0.81010000  0.25420000  0.70450000  1.0
  O  O102  1  0.13540000  0.25081000  0.82540000  1.0
  O  O103  1  0.00160000  0.24474000  0.56550000  1.0
