data_image0
_chemical_formula_structural       Ca5BaCa2H16C48S8O33
_chemical_formula_sum              "Ca7 Ba1 H16 C48 S8 O33"
_cell_length_a       10.0704
_cell_length_b       14.2521
_cell_length_c       17.5644
_cell_angle_alpha    90
_cell_angle_beta     94.281
_cell_angle_gamma    90

_space_group_name_H-M_alt    "P 1"
_space_group_IT_number       1

loop_
  _space_group_symop_operation_xyz
  'x, y, z'

loop_
  _atom_site_type_symbol
  _atom_site_label
  _atom_site_symmetry_multiplicity
  _atom_site_fract_x
  _atom_site_fract_y
  _atom_site_fract_z
  _atom_site_occupancy
  Ca  Ca1       1.0  0.52837  0.10559  0.55831  1.0000
  Ca  Ca2       1.0  0.40828  0.34702  0.53009  1.0000
  Ca  Ca3       1.0  0.97163  0.60559  0.94169  1.0000
  Ca  Ca4       1.0  0.09172  0.84702  0.96991  1.0000
  Ca  Ca5       1.0  0.47163  0.89441  0.44169  1.0000
  Ba  Ba1       1.0  0.59172  0.65298  0.46991  1.0000
  Ca  Ca6       1.0  0.02837  0.39441  0.05831  1.0000
  Ca  Ca7       1.0  0.90828  0.15298  0.03009  1.0000
  H   H1        1.0  0.11810  0.24950  0.86730  1.0000
  H   H2        1.0  0.19340  0.30750  0.74690  1.0000
  H   H3        1.0  0.26740  0.00940  0.30570  1.0000
  H   H4        1.0  0.14270  0.07030  0.19180  1.0000
  H   H5        1.0  0.38190  0.74950  0.63270  1.0000
  H   H6        1.0  0.30660  0.80750  0.75310  1.0000
  H   H7        1.0  0.23260  0.50940  0.19430  1.0000
  H   H8        1.0  0.35730  0.57030  0.30820  1.0000
  H   H9        1.0  0.88190  0.75050  0.13270  1.0000
  H   H10       1.0  0.80660  0.69250  0.25310  1.0000
  H   H11       1.0  0.73260  0.99060  0.69430  1.0000
  H   H12       1.0  0.85730  0.92970  0.80820  1.0000
  H   H13       1.0  0.61810  0.25050  0.36730  1.0000
  H   H14       1.0  0.69340  0.19250  0.24690  1.0000
  H   H15       1.0  0.76740  0.49060  0.80570  1.0000
  H   H16       1.0  0.64270  0.42970  0.69180  1.0000
  C   C1        1.0  0.31480  0.14308  0.33975  1.0000
  C   C2        1.0  0.39050  0.13302  0.41410  1.0000
  C   C3        1.0  0.19140  0.20360  0.22468  1.0000
  C   C4        1.0  0.13240  0.26670  0.16487  1.0000
  C   C5        1.0  0.21680  0.17410  0.71116  1.0000
  C   C6        1.0  0.14070  0.21060  0.82770  1.0000
  C   C7        1.0  0.13380  0.11580  0.83039  1.0000
  C   C8        1.0  0.18580  0.24420  0.75860  1.0000
  C   C9        1.0  0.25890  0.07290  0.29429  1.0000
  C   C10       1.0  0.18750  0.10800  0.22855  1.0000
  C   C11       1.0  0.09070  0.05580  0.89355  1.0000
  C   C12       1.0  0.27670  0.18250  0.63629  1.0000
  C   C13       1.0  0.18520  0.64308  0.16025  1.0000
  C   C14       1.0  0.10950  0.63302  0.08590  1.0000
  C   C15       1.0  0.30860  0.70360  0.27532  1.0000
  C   C16       1.0  0.36760  0.76670  0.33513  1.0000
  C   C17       1.0  0.28320  0.67410  0.78884  1.0000
  C   C18       1.0  0.35930  0.71060  0.67230  1.0000
  C   C19       1.0  0.36620  0.61580  0.66961  1.0000
  C   C20       1.0  0.31420  0.74420  0.74140  1.0000
  C   C21       1.0  0.24110  0.57290  0.20571  1.0000
  C   C22       1.0  0.31250  0.60800  0.27145  1.0000
  C   C23       1.0  0.40930  0.55580  0.60645  1.0000
  C   C24       1.0  0.22330  0.68250  0.86371  1.0000
  C   C25       1.0  0.68520  0.85692  0.66025  1.0000
  C   C26       1.0  0.60950  0.86698  0.58590  1.0000
  C   C27       1.0  0.80860  0.79640  0.77532  1.0000
  C   C28       1.0  0.86760  0.73330  0.83513  1.0000
  C   C29       1.0  0.78320  0.82590  0.28884  1.0000
  C   C30       1.0  0.85930  0.78940  0.17230  1.0000
  C   C31       1.0  0.86620  0.88420  0.16961  1.0000
  C   C32       1.0  0.81420  0.75580  0.24140  1.0000
  C   C33       1.0  0.74110  0.92710  0.70571  1.0000
  C   C34       1.0  0.81250  0.89200  0.77145  1.0000
  C   C35       1.0  0.90930  0.94420  0.10645  1.0000
  C   C36       1.0  0.72330  0.81750  0.36371  1.0000
  C   C37       1.0  0.81480  0.35692  0.83975  1.0000
  C   C38       1.0  0.89050  0.36698  0.91410  1.0000
  C   C39       1.0  0.69140  0.29640  0.72468  1.0000
  C   C40       1.0  0.63240  0.23330  0.66487  1.0000
  C   C41       1.0  0.71680  0.32590  0.21116  1.0000
  C   C42       1.0  0.64070  0.28940  0.32770  1.0000
  C   C43       1.0  0.63380  0.38420  0.33039  1.0000
  C   C44       1.0  0.68580  0.25580  0.25860  1.0000
  C   C45       1.0  0.75890  0.42710  0.79429  1.0000
  C   C46       1.0  0.68750  0.39200  0.72855  1.0000
  C   C47       1.0  0.59070  0.44420  0.39355  1.0000
  C   C48       1.0  0.77670  0.31750  0.13629  1.0000
  S   S1        1.0  0.28004  0.25166  0.30208  1.0000
  S   S2        1.0  0.18623  0.06599  0.74929  1.0000
  S   S3        1.0  0.21996  0.75166  0.19792  1.0000
  S   S4        1.0  0.31377  0.56599  0.75071  1.0000
  S   S5        1.0  0.71996  0.74834  0.69792  1.0000
  S   S6        1.0  0.81377  0.93401  0.25071  1.0000
  S   S7        1.0  0.78004  0.24834  0.80208  1.0000
  S   S8        1.0  0.68623  0.43401  0.24929  1.0000
  O   O1        1.0  0.41570  0.20431  0.45473  1.0000
  O   O2        1.0  0.42690  0.05209  0.43534  1.0000
  O   O3        1.0  0.07470  0.23231  0.10502  1.0000
  O   O4        1.0  0.05680  0.09607  0.95181  1.0000
  O   O5        1.0  0.09650  0.96937  0.88455  1.0000
  O   O6        1.0  0.32660  0.10932  0.61072  1.0000
  O   O7        1.0  0.14300  0.35331  0.17565  1.0000
  O   O8        1.0  0.27340  0.26155  0.60578  1.0000
  O   O9        1.0  0.08430  0.70431  0.04527  1.0000
  O   O10       1.0  0.07310  0.55209  0.06466  1.0000
  O   O11       1.0  0.42530  0.73231  0.39498  1.0000
  O   O12       1.0  0.44320  0.59607  0.54819  1.0000
  O   O13       1.0  0.40350  0.46937  0.61545  1.0000
  O   O14       1.0  0.17340  0.60932  0.88928  1.0000
  O   O15       1.0  0.35700  0.85331  0.32435  1.0000
  O   O16       1.0  0.22660  0.76155  0.89422  1.0000
  O   O17       1.0  0.58430  0.79569  0.54527  1.0000
  O   O18       1.0  0.57310  0.94791  0.56466  1.0000
  O   O19       1.0  0.92530  0.76769  0.89498  1.0000
  O   O20       1.0  0.94320  0.90393  0.04819  1.0000
  O   O21       1.0  0.90350  0.03063  0.11545  1.0000
  O   O22       1.0  0.67340  0.89068  0.38928  1.0000
  O   O23       1.0  0.85700  0.64669  0.82435  1.0000
  O   O24       1.0  0.72660  0.73845  0.39422  1.0000
  O   O25       1.0  0.91570  0.29569  0.95473  1.0000
  O   O26       1.0  0.92690  0.44791  0.93534  1.0000
  O   O27       1.0  0.57470  0.26769  0.60502  1.0000
  O   O28       1.0  0.55680  0.40393  0.45181  1.0000
  O   O29       1.0  0.59650  0.53063  0.38455  1.0000
  O   O30       1.0  0.82660  0.39068  0.11072  1.0000
  O   O31       1.0  0.64300  0.14669  0.67565  1.0000
  O   O32       1.0  0.77340  0.23845  0.10578  1.0000
  O   O33       1.0  0.70311  0.61447  0.59412  1.0000
