# generated using pymatgen
data_VH3C8O5
_symmetry_space_group_name_H-M   'P 1'
_cell_length_a   15.04180000
_cell_length_b   15.04180000
_cell_length_c   11.96110000
_cell_angle_alpha   90.00000000
_cell_angle_beta   90.00000000
_cell_angle_gamma   90.00000000
_symmetry_Int_Tables_number   1
_chemical_formula_structural   VH3C8O5
_chemical_formula_sum   'V8 H24 C64 O40'
_cell_volume   2706.26761831
_cell_formula_units_Z   8
loop_
 _symmetry_equiv_pos_site_id
 _symmetry_equiv_pos_as_xyz
  1  'x, y, z'
loop_
 _atom_site_type_symbol
 _atom_site_label
 _atom_site_symmetry_multiplicity
 _atom_site_fract_x
 _atom_site_fract_y
 _atom_site_fract_z
 _atom_site_occupancy
  V  V0  1  0.93600000  0.06400000  0.12500000  1.0
  V  V1  1  0.06400000  0.93600000  0.62500000  1.0
  V  V2  1  0.93600000  0.93600000  0.37500000  1.0
  V  V3  1  0.06400000  0.06400000  0.87500000  1.0
  V  V4  1  0.55600000  0.55600000  0.37500000  1.0
  V  V5  1  0.44400000  0.44400000  0.87500000  1.0
  V  V6  1  0.44400000  0.55600000  0.62500000  1.0
  V  V7  1  0.55600000  0.44400000  0.12500000  1.0
  H  H8  1  0.74940000  0.25230000  0.25310000  1.0
  H  H9  1  0.82340000  0.14490000  0.54530000  1.0
  H  H10  1  0.67600000  0.36680000  0.54130000  1.0
  H  H11  1  0.25060000  0.74770000  0.75310000  1.0
  H  H12  1  0.17660000  0.85510000  0.04530000  1.0
  H  H13  1  0.32400000  0.63320000  0.04130000  1.0
  H  H14  1  0.74770000  0.74940000  0.50310000  1.0
  H  H15  1  0.85510000  0.82340000  0.79530000  1.0
  H  H16  1  0.63320000  0.67600000  0.79130000  1.0
  H  H17  1  0.25230000  0.25060000  0.00310000  1.0
  H  H18  1  0.14490000  0.17660000  0.29530000  1.0
  H  H19  1  0.36680000  0.32400000  0.29130000  1.0
  H  H20  1  0.25060000  0.25230000  0.74690000  1.0
  H  H21  1  0.17660000  0.14490000  0.45470000  1.0
  H  H22  1  0.32400000  0.36680000  0.45870000  1.0
  H  H23  1  0.74940000  0.74770000  0.24690000  1.0
  H  H24  1  0.82340000  0.85510000  0.95470000  1.0
  H  H25  1  0.67600000  0.63320000  0.95870000  1.0
  H  H26  1  0.25230000  0.74940000  0.49690000  1.0
  H  H27  1  0.14490000  0.82340000  0.20470000  1.0
  H  H28  1  0.36680000  0.67600000  0.20870000  1.0
  H  H29  1  0.74770000  0.25060000  0.99690000  1.0
  H  H30  1  0.85510000  0.17660000  0.70470000  1.0
  H  H31  1  0.63320000  0.32400000  0.70870000  1.0
  C  C32  1  0.83880000  0.11880000  0.33180000  1.0
  C  C33  1  0.79370000  0.18760000  0.38990000  1.0
  C  C34  1  0.74950000  0.25330000  0.33080000  1.0
  C  C35  1  0.79380000  0.18900000  0.50560000  1.0
  C  C36  1  0.70550000  0.32040000  0.38750000  1.0
  C  C37  1  0.74970000  0.25610000  0.56226000  1.0
  C  C38  1  0.70560000  0.32180000  0.50320000  1.0
  C  C39  1  0.66020000  0.38770000  0.32690000  1.0
  C  C40  1  0.16120000  0.88120000  0.83180000  1.0
  C  C41  1  0.20630000  0.81240000  0.88990000  1.0
  C  C42  1  0.25050000  0.74670000  0.83080000  1.0
  C  C43  1  0.20620000  0.81100000  0.00560000  1.0
  C  C44  1  0.29450000  0.67960000  0.88750000  1.0
  C  C45  1  0.25030000  0.74390000  0.06226000  1.0
  C  C46  1  0.29440000  0.67820000  0.00320000  1.0
  C  C47  1  0.33980000  0.61230000  0.82690000  1.0
  C  C48  1  0.88120000  0.83880000  0.58180000  1.0
  C  C49  1  0.81240000  0.79370000  0.63990000  1.0
  C  C50  1  0.74670000  0.74950000  0.58080000  1.0
  C  C51  1  0.81100000  0.79380000  0.75560000  1.0
  C  C52  1  0.67960000  0.70550000  0.63750000  1.0
  C  C53  1  0.74390000  0.74970000  0.81226000  1.0
  C  C54  1  0.67820000  0.70560000  0.75320000  1.0
  C  C55  1  0.61230000  0.66020000  0.57690000  1.0
  C  C56  1  0.11880000  0.16120000  0.08180000  1.0
  C  C57  1  0.18760000  0.20630000  0.13990000  1.0
  C  C58  1  0.25330000  0.25050000  0.08080000  1.0
  C  C59  1  0.18900000  0.20620000  0.25560000  1.0
  C  C60  1  0.32040000  0.29450000  0.13750000  1.0
  C  C61  1  0.25610000  0.25030000  0.31226000  1.0
  C  C62  1  0.32180000  0.29440000  0.25320000  1.0
  C  C63  1  0.38770000  0.33980000  0.07690000  1.0
  C  C64  1  0.16120000  0.11880000  0.66820000  1.0
  C  C65  1  0.20630000  0.18760000  0.61010000  1.0
  C  C66  1  0.25050000  0.25330000  0.66920000  1.0
  C  C67  1  0.20620000  0.18900000  0.49440000  1.0
  C  C68  1  0.29450000  0.32040000  0.61250000  1.0
  C  C69  1  0.25030000  0.25610000  0.43774000  1.0
  C  C70  1  0.29440000  0.32180000  0.49680000  1.0
  C  C71  1  0.33980000  0.38770000  0.67310000  1.0
  C  C72  1  0.83880000  0.88120000  0.16820000  1.0
  C  C73  1  0.79370000  0.81240000  0.11010000  1.0
  C  C74  1  0.74950000  0.74670000  0.16920000  1.0
  C  C75  1  0.79380000  0.81100000  0.99440000  1.0
  C  C76  1  0.70550000  0.67960000  0.11250000  1.0
  C  C77  1  0.74970000  0.74390000  0.93774000  1.0
  C  C78  1  0.70560000  0.67820000  0.99680000  1.0
  C  C79  1  0.66020000  0.61230000  0.17310000  1.0
  C  C80  1  0.11880000  0.83880000  0.41820000  1.0
  C  C81  1  0.18760000  0.79370000  0.36010000  1.0
  C  C82  1  0.25330000  0.74950000  0.41920000  1.0
  C  C83  1  0.18900000  0.79380000  0.24440000  1.0
  C  C84  1  0.32040000  0.70550000  0.36250000  1.0
  C  C85  1  0.25610000  0.74970000  0.18774000  1.0
  C  C86  1  0.32180000  0.70560000  0.24680000  1.0
  C  C87  1  0.38770000  0.66020000  0.42310000  1.0
  C  C88  1  0.88120000  0.16120000  0.91820000  1.0
  C  C89  1  0.81240000  0.20630000  0.86010000  1.0
  C  C90  1  0.74670000  0.25050000  0.91920000  1.0
  C  C91  1  0.81100000  0.20620000  0.74440000  1.0
  C  C92  1  0.67960000  0.29450000  0.86250000  1.0
  C  C93  1  0.74390000  0.25030000  0.68774000  1.0
  C  C94  1  0.67820000  0.29440000  0.74680000  1.0
  C  C95  1  0.61230000  0.33980000  0.92310000  1.0
  O  O96  1  0.87610000  0.13360000  0.23610000  1.0
  O  O97  1  0.84390000  0.03950000  0.37290000  1.0
  O  O98  1  0.64270000  0.46380000  0.37230000  1.0
  O  O99  1  0.63520000  0.37490000  0.22470000  1.0
  O  O100  1  0.12390000  0.86640000  0.73610000  1.0
  O  O101  1  0.15610000  0.96050000  0.87290000  1.0
  O  O102  1  0.35730000  0.53620000  0.87230000  1.0
  O  O103  1  0.36480000  0.62510000  0.72470000  1.0
  O  O104  1  0.86640000  0.87610000  0.48610000  1.0
  O  O105  1  0.96050000  0.84390000  0.62290000  1.0
  O  O106  1  0.53620000  0.64270000  0.62230000  1.0
  O  O107  1  0.62510000  0.63520000  0.47470000  1.0
  O  O108  1  0.13360000  0.12390000  0.98610000  1.0
  O  O109  1  0.03950000  0.15610000  0.12290000  1.0
  O  O110  1  0.46380000  0.35730000  0.12230000  1.0
  O  O111  1  0.37490000  0.36480000  0.97470000  1.0
  O  O112  1  0.12390000  0.13360000  0.76390000  1.0
  O  O113  1  0.15610000  0.03950000  0.62710000  1.0
  O  O114  1  0.35730000  0.46380000  0.62770000  1.0
  O  O115  1  0.36480000  0.37490000  0.77530000  1.0
  O  O116  1  0.87610000  0.86640000  0.26390000  1.0
  O  O117  1  0.84390000  0.96050000  0.12710000  1.0
  O  O118  1  0.64270000  0.53620000  0.12770000  1.0
  O  O119  1  0.63520000  0.62510000  0.27530000  1.0
  O  O120  1  0.13360000  0.87610000  0.51390000  1.0
  O  O121  1  0.03950000  0.84390000  0.37710000  1.0
  O  O122  1  0.46380000  0.64270000  0.37770000  1.0
  O  O123  1  0.37490000  0.63520000  0.52530000  1.0
  O  O124  1  0.86640000  0.12390000  0.01390000  1.0
  O  O125  1  0.96050000  0.15610000  0.87710000  1.0
  O  O126  1  0.53620000  0.35730000  0.87770000  1.0
  O  O127  1  0.62510000  0.36480000  0.02530000  1.0
  O  O128  1  0.97660000  0.00000000  0.25000000  1.0
  O  O129  1  0.02340000  0.00000000  0.75000000  1.0
  O  O130  1  0.00000000  0.97660000  0.50000000  1.0
  O  O131  1  0.00000000  0.02340000  0.00000000  1.0
  O  O132  1  0.48780000  0.50000000  0.25000000  1.0
  O  O133  1  0.51220000  0.50000000  0.75000000  1.0
  O  O134  1  0.50000000  0.48780000  0.50000000  1.0
  O  O135  1  0.50000000  0.51220000  0.00000000  1.0
