# generated using pymatgen
data_CaH2C6SO4
_symmetry_space_group_name_H-M   'P 1'
_cell_length_a   10.07040000
_cell_length_b   14.25210000
_cell_length_c   17.56440000
_cell_angle_alpha   90.00000000
_cell_angle_beta   94.28100000
_cell_angle_gamma   90.00000000
_symmetry_Int_Tables_number   1
_chemical_formula_structural   CaH2C6SO4
_chemical_formula_sum   'Ca8 H16 C48 S8 O32'
_cell_volume   2513.88554629
_cell_formula_units_Z   8
loop_
 _symmetry_equiv_pos_site_id
 _symmetry_equiv_pos_as_xyz
  1  'x, y, z'
loop_
 _atom_site_type_symbol
 _atom_site_label
 _atom_site_symmetry_multiplicity
 _atom_site_fract_x
 _atom_site_fract_y
 _atom_site_fract_z
 _atom_site_occupancy
  Ca  Ca0  1  0.52837000  0.10559000  0.55831000  1.0
  Ca  Ca1  1  0.40828000  0.34702000  0.53009000  1.0
  Ca  Ca2  1  0.97163000  0.60559000  0.94169000  1.0
  Ca  Ca3  1  0.09172000  0.84702000  0.96991000  1.0
  Ca  Ca4  1  0.47163000  0.89441000  0.44169000  1.0
  Ca  Ca5  1  0.59172000  0.65298000  0.46991000  1.0
  Ca  Ca6  1  0.02837000  0.39441000  0.05831000  1.0
  Ca  Ca7  1  0.90828000  0.15298000  0.03009000  1.0
  H  H8  1  0.11810000  0.24950000  0.86730000  1.0
  H  H9  1  0.19340000  0.30750000  0.74690000  1.0
  H  H10  1  0.26740000  0.00940000  0.30570000  1.0
  H  H11  1  0.14270000  0.07030000  0.19180000  1.0
  H  H12  1  0.38190000  0.74950000  0.63270000  1.0
  H  H13  1  0.30660000  0.80750000  0.75310000  1.0
  H  H14  1  0.23260000  0.50940000  0.19430000  1.0
  H  H15  1  0.35730000  0.57030000  0.30820000  1.0
  H  H16  1  0.88190000  0.75050000  0.13270000  1.0
  H  H17  1  0.80660000  0.69250000  0.25310000  1.0
  H  H18  1  0.73260000  0.99060000  0.69430000  1.0
  H  H19  1  0.85730000  0.92970000  0.80820000  1.0
  H  H20  1  0.61810000  0.25050000  0.36730000  1.0
  H  H21  1  0.69340000  0.19250000  0.24690000  1.0
  H  H22  1  0.76740000  0.49060000  0.80570000  1.0
  H  H23  1  0.64270000  0.42970000  0.69180000  1.0
  C  C24  1  0.31480000  0.14308000  0.33975000  1.0
  C  C25  1  0.39050000  0.13302000  0.41410000  1.0
  C  C26  1  0.19140000  0.20360000  0.22468000  1.0
  C  C27  1  0.13240000  0.26670000  0.16487000  1.0
  C  C28  1  0.21680000  0.17410000  0.71116000  1.0
  C  C29  1  0.14070000  0.21060000  0.82770000  1.0
  C  C30  1  0.13380000  0.11580000  0.83039000  1.0
  C  C31  1  0.18580000  0.24420000  0.75860000  1.0
  C  C32  1  0.25890000  0.07290000  0.29429000  1.0
  C  C33  1  0.18750000  0.10800000  0.22855000  1.0
  C  C34  1  0.09070000  0.05580000  0.89355000  1.0
  C  C35  1  0.27670000  0.18250000  0.63629000  1.0
  C  C36  1  0.18520000  0.64308000  0.16025000  1.0
  C  C37  1  0.10950000  0.63302000  0.08590000  1.0
  C  C38  1  0.30860000  0.70360000  0.27532000  1.0
  C  C39  1  0.36760000  0.76670000  0.33513000  1.0
  C  C40  1  0.28320000  0.67410000  0.78884000  1.0
  C  C41  1  0.35930000  0.71060000  0.67230000  1.0
  C  C42  1  0.36620000  0.61580000  0.66961000  1.0
  C  C43  1  0.31420000  0.74420000  0.74140000  1.0
  C  C44  1  0.24110000  0.57290000  0.20571000  1.0
  C  C45  1  0.31250000  0.60800000  0.27145000  1.0
  C  C46  1  0.40930000  0.55580000  0.60645000  1.0
  C  C47  1  0.22330000  0.68250000  0.86371000  1.0
  C  C48  1  0.68520000  0.85692000  0.66025000  1.0
  C  C49  1  0.60950000  0.86698000  0.58590000  1.0
  C  C50  1  0.80860000  0.79640000  0.77532000  1.0
  C  C51  1  0.86760000  0.73330000  0.83513000  1.0
  C  C52  1  0.78320000  0.82590000  0.28884000  1.0
  C  C53  1  0.85930000  0.78940000  0.17230000  1.0
  C  C54  1  0.86620000  0.88420000  0.16961000  1.0
  C  C55  1  0.81420000  0.75580000  0.24140000  1.0
  C  C56  1  0.74110000  0.92710000  0.70571000  1.0
  C  C57  1  0.81250000  0.89200000  0.77145000  1.0
  C  C58  1  0.90930000  0.94420000  0.10645000  1.0
  C  C59  1  0.72330000  0.81750000  0.36371000  1.0
  C  C60  1  0.81480000  0.35692000  0.83975000  1.0
  C  C61  1  0.89050000  0.36698000  0.91410000  1.0
  C  C62  1  0.69140000  0.29640000  0.72468000  1.0
  C  C63  1  0.63240000  0.23330000  0.66487000  1.0
  C  C64  1  0.71680000  0.32590000  0.21116000  1.0
  C  C65  1  0.64070000  0.28940000  0.32770000  1.0
  C  C66  1  0.63380000  0.38420000  0.33039000  1.0
  C  C67  1  0.68580000  0.25580000  0.25860000  1.0
  C  C68  1  0.75890000  0.42710000  0.79429000  1.0
  C  C69  1  0.68750000  0.39200000  0.72855000  1.0
  C  C70  1  0.59070000  0.44420000  0.39355000  1.0
  C  C71  1  0.77670000  0.31750000  0.13629000  1.0
  S  S72  1  0.28004000  0.25166000  0.30208000  1.0
  S  S73  1  0.18623000  0.06599000  0.74929000  1.0
  S  S74  1  0.21996000  0.75166000  0.19792000  1.0
  S  S75  1  0.31377000  0.56599000  0.75071000  1.0
  S  S76  1  0.71996000  0.74834000  0.69792000  1.0
  S  S77  1  0.81377000  0.93401000  0.25071000  1.0
  S  S78  1  0.78004000  0.24834000  0.80208000  1.0
  S  S79  1  0.68623000  0.43401000  0.24929000  1.0
  O  O80  1  0.41570000  0.20431000  0.45473000  1.0
  O  O81  1  0.42690000  0.05209000  0.43534000  1.0
  O  O82  1  0.07470000  0.23231000  0.10502000  1.0
  O  O83  1  0.05680000  0.09607000  0.95181000  1.0
  O  O84  1  0.09650000  0.96937000  0.88455000  1.0
  O  O85  1  0.32660000  0.10932000  0.61072000  1.0
  O  O86  1  0.14300000  0.35331000  0.17565000  1.0
  O  O87  1  0.27340000  0.26155000  0.60578000  1.0
  O  O88  1  0.08430000  0.70431000  0.04527000  1.0
  O  O89  1  0.07310000  0.55209000  0.06466000  1.0
  O  O90  1  0.42530000  0.73231000  0.39498000  1.0
  O  O91  1  0.44320000  0.59607000  0.54819000  1.0
  O  O92  1  0.40350000  0.46937000  0.61545000  1.0
  O  O93  1  0.17340000  0.60932000  0.88928000  1.0
  O  O94  1  0.35700000  0.85331000  0.32435000  1.0
  O  O95  1  0.22660000  0.76155000  0.89422000  1.0
  O  O96  1  0.58430000  0.79569000  0.54527000  1.0
  O  O97  1  0.57310000  0.94791000  0.56466000  1.0
  O  O98  1  0.92530000  0.76769000  0.89498000  1.0
  O  O99  1  0.94320000  0.90393000  0.04819000  1.0
  O  O100  1  0.90350000  0.03063000  0.11545000  1.0
  O  O101  1  0.67340000  0.89068000  0.38928000  1.0
  O  O102  1  0.85700000  0.64669000  0.82435000  1.0
  O  O103  1  0.72660000  0.73845000  0.39422000  1.0
  O  O104  1  0.91570000  0.29569000  0.95473000  1.0
  O  O105  1  0.92690000  0.44791000  0.93534000  1.0
  O  O106  1  0.57470000  0.26769000  0.60502000  1.0
  O  O107  1  0.55680000  0.40393000  0.45181000  1.0
  O  O108  1  0.59650000  0.53063000  0.38455000  1.0
  O  O109  1  0.82660000  0.39068000  0.11072000  1.0
  O  O110  1  0.64300000  0.14669000  0.67565000  1.0
  O  O111  1  0.77340000  0.23845000  0.10578000  1.0
