data_image0
_cell_length_a       25.832
_cell_length_b       25.832
_cell_length_c       25.832
_cell_angle_alpha    90
_cell_angle_beta     90
_cell_angle_gamma    90

_symmetry_space_group_name_H-M    "P 1"
_symmetry_int_tables_number       1

loop_
  _symmetry_equiv_pos_as_xyz
  'x, y, z'

loop_
  _atom_site_label
  _atom_site_occupancy
  _atom_site_fract_x
  _atom_site_fract_y
  _atom_site_fract_z
  _atom_site_thermal_displace_type
  _atom_site_B_iso_or_equiv
  _atom_site_type_symbol
  O1       1.0000 0.13400  0.28190  0.21810  Biso   1.000  O
  C1       1.0000 0.11130  0.25000  0.25000  Biso   1.000  C
  C2       1.0000 0.05380  0.25000  0.25000  Biso   1.000  C
  C3       1.0000 0.02690  0.28290  0.21710  Biso   1.000  C
  H1       1.0000 0.04480  0.30490  0.19510  Biso   1.000  H
  O2       1.0000 0.13400  0.71810  0.78190  Biso   1.000  O
  C4       1.0000 0.11130  0.75000  0.75000  Biso   1.000  C
  C5       1.0000 0.05380  0.75000  0.75000  Biso   1.000  C
  C6       1.0000 0.02690  0.71710  0.78290  Biso   1.000  C
  H2       1.0000 0.04480  0.69510  0.80490  Biso   1.000  H
  O3       1.0000 0.13400  0.78190  0.71810  Biso   1.000  O
  C7       1.0000 0.02690  0.78290  0.71710  Biso   1.000  C
  H3       1.0000 0.04480  0.80490  0.69510  Biso   1.000  H
  O4       1.0000 0.13400  0.21810  0.28190  Biso   1.000  O
  C8       1.0000 0.02690  0.21710  0.28290  Biso   1.000  C
  H4       1.0000 0.04480  0.19510  0.30490  Biso   1.000  H
  Zn1      1.0000 0.20660  0.29340  0.20660  Biso   1.000  Zn
  Zn2      1.0000 0.20660  0.70660  0.79340  Biso   1.000  Zn
  Zn3      1.0000 0.20660  0.20660  0.29340  Biso   1.000  Zn
  Zn4      1.0000 0.20660  0.79340  0.70660  Biso   1.000  Zn
  O5       1.0000 0.21810  0.13400  0.28190  Biso   1.000  O
  C9       1.0000 0.25000  0.11130  0.25000  Biso   1.000  C
  C10      1.0000 0.25000  0.05380  0.25000  Biso   1.000  C
  C11      1.0000 0.21710  0.02690  0.28290  Biso   1.000  C
  H5       1.0000 0.19510  0.04480  0.30490  Biso   1.000  H
  O6       1.0000 0.78190  0.13400  0.71810  Biso   1.000  O
  C12      1.0000 0.75000  0.11130  0.75000  Biso   1.000  C
  C13      1.0000 0.75000  0.05380  0.75000  Biso   1.000  C
  C14      1.0000 0.78290  0.02690  0.71710  Biso   1.000  C
  H6       1.0000 0.80490  0.04480  0.69510  Biso   1.000  H
  O7       1.0000 0.28190  0.13400  0.21810  Biso   1.000  O
  C15      1.0000 0.28290  0.02690  0.21710  Biso   1.000  C
  H7       1.0000 0.30490  0.04480  0.19510  Biso   1.000  H
  O8       1.0000 0.71810  0.13400  0.78190  Biso   1.000  O
  C16      1.0000 0.71710  0.02690  0.78290  Biso   1.000  C
  H8       1.0000 0.69510  0.04480  0.80490  Biso   1.000  H
  Zn5      1.0000 0.29340  0.20660  0.20660  Biso   1.000  Zn
  Zn6      1.0000 0.70660  0.20660  0.79340  Biso   1.000  Zn
  Zn7      1.0000 0.79340  0.20660  0.70660  Biso   1.000  Zn
  O9       1.0000 0.25000  0.25000  0.25000  Biso   1.000  O
  O10      1.0000 0.28190  0.21810  0.13400  Biso   1.000  O
  C17      1.0000 0.25000  0.25000  0.11130  Biso   1.000  C
  C18      1.0000 0.25000  0.25000  0.05380  Biso   1.000  C
  C19      1.0000 0.28290  0.21710  0.02690  Biso   1.000  C
  H9       1.0000 0.30490  0.19510  0.04480  Biso   1.000  H
  Zn8      1.0000 0.70660  0.79340  0.20660  Biso   1.000  Zn
  O11      1.0000 0.75000  0.75000  0.25000  Biso   1.000  O
  O12      1.0000 0.71810  0.78190  0.13400  Biso   1.000  O
  C20      1.0000 0.75000  0.75000  0.11130  Biso   1.000  C
  C21      1.0000 0.75000  0.75000  0.05380  Biso   1.000  C
  C22      1.0000 0.71710  0.78290  0.02690  Biso   1.000  C
  H10      1.0000 0.69510  0.80490  0.04480  Biso   1.000  H
  O13      1.0000 0.75000  0.25000  0.75000  Biso   1.000  O
  Zn9      1.0000 0.29340  0.79340  0.79340  Biso   1.000  Zn
  O14      1.0000 0.25000  0.75000  0.75000  Biso   1.000  O
  Zn10     1.0000 0.79340  0.70660  0.20660  Biso   1.000  Zn
  Zn11     1.0000 0.79340  0.29340  0.79340  Biso   1.000  Zn
  Zn12     1.0000 0.79340  0.79340  0.29340  Biso   1.000  Zn
  Zn13     1.0000 0.20660  0.29340  0.79340  Biso   1.000  Zn
  O15      1.0000 0.25000  0.25000  0.75000  Biso   1.000  O
  Zn14     1.0000 0.79340  0.70660  0.79340  Biso   1.000  Zn
  O16      1.0000 0.75000  0.75000  0.75000  Biso   1.000  O
  Zn15     1.0000 0.20660  0.70660  0.20660  Biso   1.000  Zn
  O17      1.0000 0.25000  0.75000  0.25000  Biso   1.000  O
  O18      1.0000 0.21810  0.71810  0.13400  Biso   1.000  O
  C23      1.0000 0.25000  0.75000  0.11130  Biso   1.000  C
  C24      1.0000 0.25000  0.75000  0.05380  Biso   1.000  C
  C25      1.0000 0.21710  0.71710  0.02690  Biso   1.000  C
  H11      1.0000 0.19510  0.69510  0.04480  Biso   1.000  H
  Zn16     1.0000 0.79340  0.29340  0.20660  Biso   1.000  Zn
  O19      1.0000 0.75000  0.25000  0.25000  Biso   1.000  O
  O20      1.0000 0.78190  0.28190  0.13400  Biso   1.000  O
  C26      1.0000 0.75000  0.25000  0.11130  Biso   1.000  C
  C27      1.0000 0.75000  0.25000  0.05380  Biso   1.000  C
  C28      1.0000 0.78290  0.28290  0.02690  Biso   1.000  C
  H12      1.0000 0.80490  0.30490  0.04480  Biso   1.000  H
  Zn17     1.0000 0.29340  0.20660  0.79340  Biso   1.000  Zn
  O21      1.0000 0.28190  0.13400  0.78190  Biso   1.000  O
  C29      1.0000 0.25000  0.11130  0.75000  Biso   1.000  C
  C30      1.0000 0.25000  0.05380  0.75000  Biso   1.000  C
  C31      1.0000 0.28290  0.02690  0.78290  Biso   1.000  C
  H13      1.0000 0.30490  0.04480  0.80490  Biso   1.000  H
  Zn18     1.0000 0.70660  0.20660  0.20660  Biso   1.000  Zn
  O22      1.0000 0.71810  0.13400  0.21810  Biso   1.000  O
  C32      1.0000 0.75000  0.11130  0.25000  Biso   1.000  C
  C33      1.0000 0.75000  0.05380  0.25000  Biso   1.000  C
  C34      1.0000 0.71710  0.02690  0.21710  Biso   1.000  C
  H14      1.0000 0.69510  0.04480  0.19510  Biso   1.000  H
  Zn19     1.0000 0.70660  0.79340  0.79340  Biso   1.000  Zn
  O23      1.0000 0.71810  0.86600  0.78190  Biso   1.000  O
  C35      1.0000 0.75000  0.88870  0.75000  Biso   1.000  C
  C36      1.0000 0.75000  0.94620  0.75000  Biso   1.000  C
  C37      1.0000 0.71710  0.97310  0.78290  Biso   1.000  C
  H15      1.0000 0.69510  0.95520  0.80490  Biso   1.000  H
  Zn20     1.0000 0.29340  0.79340  0.20660  Biso   1.000  Zn
  O24      1.0000 0.28190  0.86600  0.21810  Biso   1.000  O
  C38      1.0000 0.25000  0.88870  0.25000  Biso   1.000  C
  C39      1.0000 0.25000  0.94620  0.25000  Biso   1.000  C
  C40      1.0000 0.28290  0.97310  0.21710  Biso   1.000  C
  H16      1.0000 0.30490  0.95520  0.19510  Biso   1.000  H
  Zn21     1.0000 0.20660  0.20660  0.70660  Biso   1.000  Zn
  O25      1.0000 0.13400  0.21810  0.71810  Biso   1.000  O
  C41      1.0000 0.11130  0.25000  0.75000  Biso   1.000  C
  C42      1.0000 0.05380  0.25000  0.75000  Biso   1.000  C
  C43      1.0000 0.02690  0.21710  0.71710  Biso   1.000  C
  H17      1.0000 0.04480  0.19510  0.69510  Biso   1.000  H
  Zn22     1.0000 0.20660  0.79340  0.29340  Biso   1.000  Zn
  O26      1.0000 0.13400  0.78190  0.28190  Biso   1.000  O
  C44      1.0000 0.11130  0.75000  0.25000  Biso   1.000  C
  C45      1.0000 0.05380  0.75000  0.25000  Biso   1.000  C
  C46      1.0000 0.02690  0.78290  0.28290  Biso   1.000  C
  H18      1.0000 0.04480  0.80490  0.30490  Biso   1.000  H
  Zn23     1.0000 0.79340  0.20660  0.29340  Biso   1.000  Zn
  O27      1.0000 0.86600  0.21810  0.28190  Biso   1.000  O
  C47      1.0000 0.88870  0.25000  0.25000  Biso   1.000  C
  C48      1.0000 0.94620  0.25000  0.25000  Biso   1.000  C
  C49      1.0000 0.97310  0.21710  0.28290  Biso   1.000  C
  H19      1.0000 0.95520  0.19510  0.30490  Biso   1.000  H
  Zn24     1.0000 0.79340  0.79340  0.70660  Biso   1.000  Zn
  O28      1.0000 0.86600  0.78190  0.71810  Biso   1.000  O
  C50      1.0000 0.88870  0.75000  0.75000  Biso   1.000  C
  C51      1.0000 0.94620  0.75000  0.75000  Biso   1.000  C
  C52      1.0000 0.97310  0.78290  0.71710  Biso   1.000  C
  H20      1.0000 0.95520  0.80490  0.69510  Biso   1.000  H
  O29      1.0000 0.28190  0.78190  0.13400  Biso   1.000  O
  C53      1.0000 0.28290  0.78290  0.02690  Biso   1.000  C
  H21      1.0000 0.30490  0.80490  0.04480  Biso   1.000  H
  O30      1.0000 0.71810  0.21810  0.13400  Biso   1.000  O
  C54      1.0000 0.71710  0.21710  0.02690  Biso   1.000  C
  H22      1.0000 0.69510  0.19510  0.04480  Biso   1.000  H
  O31      1.0000 0.86600  0.71810  0.78190  Biso   1.000  O
  C55      1.0000 0.97310  0.71710  0.78290  Biso   1.000  C
  H23      1.0000 0.95520  0.69510  0.80490  Biso   1.000  H
  O32      1.0000 0.86600  0.28190  0.21810  Biso   1.000  O
  C56      1.0000 0.97310  0.28290  0.21710  Biso   1.000  C
  H24      1.0000 0.95520  0.30490  0.19510  Biso   1.000  H
  O33      1.0000 0.13400  0.28190  0.78190  Biso   1.000  O
  C57      1.0000 0.02690  0.28290  0.78290  Biso   1.000  C
  H25      1.0000 0.04480  0.30490  0.80490  Biso   1.000  H
  O34      1.0000 0.13400  0.71810  0.21810  Biso   1.000  O
  C58      1.0000 0.02690  0.71710  0.21710  Biso   1.000  C
  H26      1.0000 0.04480  0.69510  0.19510  Biso   1.000  H
  O35      1.0000 0.78190  0.86600  0.71810  Biso   1.000  O
  C59      1.0000 0.78290  0.97310  0.71710  Biso   1.000  C
  H27      1.0000 0.80490  0.95520  0.69510  Biso   1.000  H
  O36      1.0000 0.21810  0.86600  0.28190  Biso   1.000  O
  C60      1.0000 0.21710  0.97310  0.28290  Biso   1.000  C
  H28      1.0000 0.19510  0.95520  0.30490  Biso   1.000  H
  O37      1.0000 0.78190  0.13400  0.28190  Biso   1.000  O
  C61      1.0000 0.78290  0.02690  0.28290  Biso   1.000  C
  H29      1.0000 0.80490  0.04480  0.30490  Biso   1.000  H
  O38      1.0000 0.21810  0.13400  0.71810  Biso   1.000  O
  C62      1.0000 0.21710  0.02690  0.71710  Biso   1.000  C
  H30      1.0000 0.19510  0.04480  0.69510  Biso   1.000  H
  O39      1.0000 0.78190  0.71810  0.13400  Biso   1.000  O
  C63      1.0000 0.78290  0.71710  0.02690  Biso   1.000  C
  H31      1.0000 0.80490  0.69510  0.04480  Biso   1.000  H
  O40      1.0000 0.21810  0.28190  0.13400  Biso   1.000  O
  C64      1.0000 0.21710  0.28290  0.02690  Biso   1.000  C
  H32      1.0000 0.19510  0.30490  0.04480  Biso   1.000  H
  Zn25     1.0000 0.29340  0.70660  0.70660  Biso   1.000  Zn
  O41      1.0000 0.28190  0.71810  0.63400  Biso   1.000  O
  C65      1.0000 0.25000  0.75000  0.61130  Biso   1.000  C
  C66      1.0000 0.25000  0.75000  0.55380  Biso   1.000  C
  C67      1.0000 0.28290  0.71710  0.52690  Biso   1.000  C
  H33      1.0000 0.30490  0.69510  0.54480  Biso   1.000  H
  Zn26     1.0000 0.70660  0.29340  0.70660  Biso   1.000  Zn
  O42      1.0000 0.71810  0.28190  0.63400  Biso   1.000  O
  C68      1.0000 0.75000  0.25000  0.61130  Biso   1.000  C
  C69      1.0000 0.75000  0.25000  0.55380  Biso   1.000  C
  C70      1.0000 0.71710  0.28290  0.52690  Biso   1.000  C
  H34      1.0000 0.69510  0.30490  0.54480  Biso   1.000  H
  Zn27     1.0000 0.70660  0.70660  0.29340  Biso   1.000  Zn
  O43      1.0000 0.71810  0.71810  0.36600  Biso   1.000  O
  C71      1.0000 0.75000  0.75000  0.38870  Biso   1.000  C
  C72      1.0000 0.75000  0.75000  0.44620  Biso   1.000  C
  C73      1.0000 0.71710  0.71710  0.47310  Biso   1.000  C
  H35      1.0000 0.69510  0.69510  0.45520  Biso   1.000  H
  Zn28     1.0000 0.29340  0.29340  0.29340  Biso   1.000  Zn
  O44      1.0000 0.28190  0.28190  0.36600  Biso   1.000  O
  C74      1.0000 0.25000  0.25000  0.38870  Biso   1.000  C
  C75      1.0000 0.25000  0.25000  0.44620  Biso   1.000  C
  C76      1.0000 0.28290  0.28290  0.47310  Biso   1.000  C
  H36      1.0000 0.30490  0.30490  0.45520  Biso   1.000  H
  O45      1.0000 0.21810  0.63400  0.78190  Biso   1.000  O
  C77      1.0000 0.25000  0.61130  0.75000  Biso   1.000  C
  C78      1.0000 0.25000  0.55380  0.75000  Biso   1.000  C
  C79      1.0000 0.21710  0.52690  0.78290  Biso   1.000  C
  H37      1.0000 0.19510  0.54480  0.80490  Biso   1.000  H
  O46      1.0000 0.78190  0.63400  0.21810  Biso   1.000  O
  C80      1.0000 0.75000  0.61130  0.25000  Biso   1.000  C
  C81      1.0000 0.75000  0.55380  0.25000  Biso   1.000  C
  C82      1.0000 0.78290  0.52690  0.21710  Biso   1.000  C
  H38      1.0000 0.80490  0.54480  0.19510  Biso   1.000  H
  O47      1.0000 0.21810  0.36600  0.21810  Biso   1.000  O
  C83      1.0000 0.25000  0.38870  0.25000  Biso   1.000  C
  C84      1.0000 0.25000  0.44620  0.25000  Biso   1.000  C
  C85      1.0000 0.21710  0.47310  0.21710  Biso   1.000  C
  H39      1.0000 0.19510  0.45520  0.19510  Biso   1.000  H
  O48      1.0000 0.78190  0.36600  0.78190  Biso   1.000  O
  C86      1.0000 0.75000  0.38870  0.75000  Biso   1.000  C
  C87      1.0000 0.75000  0.44620  0.75000  Biso   1.000  C
  C88      1.0000 0.78290  0.47310  0.78290  Biso   1.000  C
  H40      1.0000 0.80490  0.45520  0.80490  Biso   1.000  H
  O49      1.0000 0.21810  0.78190  0.36600  Biso   1.000  O
  C89      1.0000 0.25000  0.75000  0.38870  Biso   1.000  C
  C90      1.0000 0.25000  0.75000  0.44620  Biso   1.000  C
  C91      1.0000 0.21710  0.78290  0.47310  Biso   1.000  C
  H41      1.0000 0.19510  0.80490  0.45520  Biso   1.000  H
  O50      1.0000 0.78190  0.21810  0.36600  Biso   1.000  O
  C92      1.0000 0.75000  0.25000  0.38870  Biso   1.000  C
  C93      1.0000 0.75000  0.25000  0.44620  Biso   1.000  C
  C94      1.0000 0.78290  0.21710  0.47310  Biso   1.000  C
  H42      1.0000 0.80490  0.19510  0.45520  Biso   1.000  H
  O51      1.0000 0.21810  0.21810  0.63400  Biso   1.000  O
  C95      1.0000 0.25000  0.25000  0.61130  Biso   1.000  C
  C96      1.0000 0.25000  0.25000  0.55380  Biso   1.000  C
  C97      1.0000 0.21710  0.21710  0.52690  Biso   1.000  C
  H43      1.0000 0.19510  0.19510  0.54480  Biso   1.000  H
  O52      1.0000 0.78190  0.78190  0.63400  Biso   1.000  O
  C98      1.0000 0.75000  0.75000  0.61130  Biso   1.000  C
  C99      1.0000 0.75000  0.75000  0.55380  Biso   1.000  C
  C100     1.0000 0.78290  0.78290  0.52690  Biso   1.000  C
  H44      1.0000 0.80490  0.80490  0.54480  Biso   1.000  H
  Zn29     1.0000 0.29340  0.70660  0.29340  Biso   1.000  Zn
  O53      1.0000 0.28190  0.63400  0.28190  Biso   1.000  O
  C101     1.0000 0.25000  0.61130  0.25000  Biso   1.000  C
  C102     1.0000 0.25000  0.55380  0.25000  Biso   1.000  C
  C103     1.0000 0.28290  0.52690  0.28290  Biso   1.000  C
  H45      1.0000 0.30490  0.54480  0.30490  Biso   1.000  H
  Zn30     1.0000 0.70660  0.70660  0.70660  Biso   1.000  Zn
  O54      1.0000 0.71810  0.63400  0.71810  Biso   1.000  O
  C104     1.0000 0.75000  0.61130  0.75000  Biso   1.000  C
  C105     1.0000 0.75000  0.55380  0.75000  Biso   1.000  C
  C106     1.0000 0.71710  0.52690  0.71710  Biso   1.000  C
  H46      1.0000 0.69510  0.54480  0.69510  Biso   1.000  H
  Zn31     1.0000 0.70660  0.29340  0.29340  Biso   1.000  Zn
  O55      1.0000 0.71810  0.36600  0.28190  Biso   1.000  O
  C107     1.0000 0.75000  0.38870  0.25000  Biso   1.000  C
  C108     1.0000 0.75000  0.44620  0.25000  Biso   1.000  C
  C109     1.0000 0.71710  0.47310  0.28290  Biso   1.000  C
  H47      1.0000 0.69510  0.45520  0.30490  Biso   1.000  H
  Zn32     1.0000 0.29340  0.29340  0.70660  Biso   1.000  Zn
  O56      1.0000 0.28190  0.36600  0.71810  Biso   1.000  O
  C110     1.0000 0.25000  0.38870  0.75000  Biso   1.000  C
  C111     1.0000 0.25000  0.44620  0.75000  Biso   1.000  C
  C112     1.0000 0.28290  0.47310  0.71710  Biso   1.000  C
  H48      1.0000 0.30490  0.45520  0.69510  Biso   1.000  H
  O57      1.0000 0.71810  0.28190  0.36600  Biso   1.000  O
  C113     1.0000 0.71710  0.28290  0.47310  Biso   1.000  C
  H49      1.0000 0.69510  0.30490  0.45520  Biso   1.000  H
  O58      1.0000 0.28190  0.71810  0.36600  Biso   1.000  O
  C114     1.0000 0.28290  0.71710  0.47310  Biso   1.000  C
  H50      1.0000 0.30490  0.69510  0.45520  Biso   1.000  H
  O59      1.0000 0.28190  0.28190  0.63400  Biso   1.000  O
  C115     1.0000 0.28290  0.28290  0.52690  Biso   1.000  C
  H51      1.0000 0.30490  0.30490  0.54480  Biso   1.000  H
  O60      1.0000 0.71810  0.71810  0.63400  Biso   1.000  O
  C116     1.0000 0.71710  0.71710  0.52690  Biso   1.000  C
  H52      1.0000 0.69510  0.69510  0.54480  Biso   1.000  H
  O61      1.0000 0.78190  0.36600  0.21810  Biso   1.000  O
  C117     1.0000 0.78290  0.47310  0.21710  Biso   1.000  C
  H53      1.0000 0.80490  0.45520  0.19510  Biso   1.000  H
  O62      1.0000 0.21810  0.36600  0.78190  Biso   1.000  O
  C118     1.0000 0.21710  0.47310  0.78290  Biso   1.000  C
  H54      1.0000 0.19510  0.45520  0.80490  Biso   1.000  H
  O63      1.0000 0.78190  0.63400  0.78190  Biso   1.000  O
  C119     1.0000 0.78290  0.52690  0.78290  Biso   1.000  C
  H55      1.0000 0.80490  0.54480  0.80490  Biso   1.000  H
  O64      1.0000 0.21810  0.63400  0.21810  Biso   1.000  O
  C120     1.0000 0.21710  0.52690  0.21710  Biso   1.000  C
  H56      1.0000 0.19510  0.54480  0.19510  Biso   1.000  H
  O65      1.0000 0.78190  0.21810  0.63400  Biso   1.000  O
  C121     1.0000 0.78290  0.21710  0.52690  Biso   1.000  C
  H57      1.0000 0.80490  0.19510  0.54480  Biso   1.000  H
  O66      1.0000 0.21810  0.78190  0.63400  Biso   1.000  O
  C122     1.0000 0.21710  0.78290  0.52690  Biso   1.000  C
  H58      1.0000 0.19510  0.80490  0.54480  Biso   1.000  H
  O67      1.0000 0.78190  0.78190  0.36600  Biso   1.000  O
  C123     1.0000 0.78290  0.78290  0.47310  Biso   1.000  C
  H59      1.0000 0.80490  0.80490  0.45520  Biso   1.000  H
  O68      1.0000 0.21810  0.21810  0.36600  Biso   1.000  O
  C124     1.0000 0.21710  0.21710  0.47310  Biso   1.000  C
  H60      1.0000 0.19510  0.19510  0.45520  Biso   1.000  H
  O69      1.0000 0.71810  0.36600  0.71810  Biso   1.000  O
  C125     1.0000 0.71710  0.47310  0.71710  Biso   1.000  C
  H61      1.0000 0.69510  0.45520  0.69510  Biso   1.000  H
  O70      1.0000 0.28190  0.36600  0.28190  Biso   1.000  O
  C126     1.0000 0.28290  0.47310  0.28290  Biso   1.000  C
  H62      1.0000 0.30490  0.45520  0.30490  Biso   1.000  H
  O71      1.0000 0.28190  0.63400  0.71810  Biso   1.000  O
  C127     1.0000 0.28290  0.52690  0.71710  Biso   1.000  C
  H63      1.0000 0.30490  0.54480  0.69510  Biso   1.000  H
  O72      1.0000 0.71810  0.63400  0.28190  Biso   1.000  O
  C128     1.0000 0.71710  0.52690  0.28290  Biso   1.000  C
  H64      1.0000 0.69510  0.54480  0.30490  Biso   1.000  H
  O73      1.0000 0.63400  0.28190  0.71810  Biso   1.000  O
  C129     1.0000 0.61130  0.25000  0.75000  Biso   1.000  C
  C130     1.0000 0.55380  0.25000  0.75000  Biso   1.000  C
  C131     1.0000 0.52690  0.28290  0.71710  Biso   1.000  C
  H65      1.0000 0.54480  0.30490  0.69510  Biso   1.000  H
  O74      1.0000 0.63400  0.71810  0.28190  Biso   1.000  O
  C132     1.0000 0.61130  0.75000  0.25000  Biso   1.000  C
  C133     1.0000 0.55380  0.75000  0.25000  Biso   1.000  C
  C134     1.0000 0.52690  0.71710  0.28290  Biso   1.000  C
  H66      1.0000 0.54480  0.69510  0.30490  Biso   1.000  H
  O75      1.0000 0.36600  0.71810  0.71810  Biso   1.000  O
  C135     1.0000 0.38870  0.75000  0.75000  Biso   1.000  C
  C136     1.0000 0.44620  0.75000  0.75000  Biso   1.000  C
  C137     1.0000 0.47310  0.71710  0.71710  Biso   1.000  C
  H67      1.0000 0.45520  0.69510  0.69510  Biso   1.000  H
  O76      1.0000 0.36600  0.28190  0.28190  Biso   1.000  O
  C138     1.0000 0.38870  0.25000  0.25000  Biso   1.000  C
  C139     1.0000 0.44620  0.25000  0.25000  Biso   1.000  C
  C140     1.0000 0.47310  0.28290  0.28290  Biso   1.000  C
  H68      1.0000 0.45520  0.30490  0.30490  Biso   1.000  H
  O77      1.0000 0.63400  0.21810  0.21810  Biso   1.000  O
  C141     1.0000 0.61130  0.25000  0.25000  Biso   1.000  C
  C142     1.0000 0.55380  0.25000  0.25000  Biso   1.000  C
  C143     1.0000 0.52690  0.21710  0.21710  Biso   1.000  C
  H69      1.0000 0.54480  0.19510  0.19510  Biso   1.000  H
  O78      1.0000 0.63400  0.78190  0.78190  Biso   1.000  O
  C144     1.0000 0.61130  0.75000  0.75000  Biso   1.000  C
  C145     1.0000 0.55380  0.75000  0.75000  Biso   1.000  C
  C146     1.0000 0.52690  0.78290  0.78290  Biso   1.000  C
  H70      1.0000 0.54480  0.80490  0.80490  Biso   1.000  H
  O79      1.0000 0.36600  0.21810  0.78190  Biso   1.000  O
  C147     1.0000 0.38870  0.25000  0.75000  Biso   1.000  C
  C148     1.0000 0.44620  0.25000  0.75000  Biso   1.000  C
  C149     1.0000 0.47310  0.21710  0.78290  Biso   1.000  C
  H71      1.0000 0.45520  0.19510  0.80490  Biso   1.000  H
  O80      1.0000 0.36600  0.78190  0.21810  Biso   1.000  O
  C150     1.0000 0.38870  0.75000  0.25000  Biso   1.000  C
  C151     1.0000 0.44620  0.75000  0.25000  Biso   1.000  C
  C152     1.0000 0.47310  0.78290  0.21710  Biso   1.000  C
  H72      1.0000 0.45520  0.80490  0.19510  Biso   1.000  H
  O81      1.0000 0.36600  0.71810  0.28190  Biso   1.000  O
  C153     1.0000 0.47310  0.71710  0.28290  Biso   1.000  C
  H73      1.0000 0.45520  0.69510  0.30490  Biso   1.000  H
  O82      1.0000 0.36600  0.28190  0.71810  Biso   1.000  O
  C154     1.0000 0.47310  0.28290  0.71710  Biso   1.000  C
  H74      1.0000 0.45520  0.30490  0.69510  Biso   1.000  H
  O83      1.0000 0.63400  0.28190  0.28190  Biso   1.000  O
  C155     1.0000 0.52690  0.28290  0.28290  Biso   1.000  C
  H75      1.0000 0.54480  0.30490  0.30490  Biso   1.000  H
  O84      1.0000 0.63400  0.71810  0.71810  Biso   1.000  O
  C156     1.0000 0.52690  0.71710  0.71710  Biso   1.000  C
  H76      1.0000 0.54480  0.69510  0.69510  Biso   1.000  H
  O85      1.0000 0.36600  0.78190  0.78190  Biso   1.000  O
  C157     1.0000 0.47310  0.78290  0.78290  Biso   1.000  C
  H77      1.0000 0.45520  0.80490  0.80490  Biso   1.000  H
  O86      1.0000 0.36600  0.21810  0.21810  Biso   1.000  O
  C158     1.0000 0.47310  0.21710  0.21710  Biso   1.000  C
  H78      1.0000 0.45520  0.19510  0.19510  Biso   1.000  H
  O87      1.0000 0.63400  0.78190  0.21810  Biso   1.000  O
  C159     1.0000 0.52690  0.78290  0.21710  Biso   1.000  C
  H79      1.0000 0.54480  0.80490  0.19510  Biso   1.000  H
  O88      1.0000 0.63400  0.21810  0.78190  Biso   1.000  O
  C160     1.0000 0.52690  0.21710  0.78290  Biso   1.000  C
  H80      1.0000 0.54480  0.19510  0.80490  Biso   1.000  H
  O89      1.0000 0.71810  0.21810  0.86600  Biso   1.000  O
  O90      1.0000 0.28190  0.78190  0.86600  Biso   1.000  O
  O91      1.0000 0.86600  0.71810  0.21810  Biso   1.000  O
  O92      1.0000 0.86600  0.28190  0.78190  Biso   1.000  O
  O93      1.0000 0.21810  0.86600  0.71810  Biso   1.000  O
  O94      1.0000 0.78190  0.86600  0.28190  Biso   1.000  O
  O95      1.0000 0.21810  0.28190  0.86600  Biso   1.000  O
  O96      1.0000 0.78190  0.71810  0.86600  Biso   1.000  O
  O97      1.0000 0.71810  0.78190  0.86600  Biso   1.000  O
  O98      1.0000 0.28190  0.21810  0.86600  Biso   1.000  O
  O99      1.0000 0.78190  0.28190  0.86600  Biso   1.000  O
  O100     1.0000 0.21810  0.71810  0.86600  Biso   1.000  O
  O101     1.0000 0.71810  0.86600  0.21810  Biso   1.000  O
  O102     1.0000 0.28190  0.86600  0.78190  Biso   1.000  O
  O103     1.0000 0.86600  0.78190  0.28190  Biso   1.000  O
  O104     1.0000 0.86600  0.21810  0.71810  Biso   1.000  O
  C161     1.0000 0.75000  0.25000  0.88870  Biso   1.000  C
  C162     1.0000 0.75000  0.25000  0.94620  Biso   1.000  C
  C163     1.0000 0.71710  0.21710  0.97310  Biso   1.000  C
  H81      1.0000 0.69510  0.19510  0.95520  Biso   1.000  H
  C164     1.0000 0.25000  0.75000  0.88870  Biso   1.000  C
  C165     1.0000 0.25000  0.75000  0.94620  Biso   1.000  C
  C166     1.0000 0.28290  0.78290  0.97310  Biso   1.000  C
  H82      1.0000 0.30490  0.80490  0.95520  Biso   1.000  H
  C167     1.0000 0.25000  0.25000  0.88870  Biso   1.000  C
  C168     1.0000 0.25000  0.25000  0.94620  Biso   1.000  C
  C169     1.0000 0.21710  0.28290  0.97310  Biso   1.000  C
  H83      1.0000 0.19510  0.30490  0.95520  Biso   1.000  H
  C170     1.0000 0.75000  0.75000  0.88870  Biso   1.000  C
  C171     1.0000 0.75000  0.75000  0.94620  Biso   1.000  C
  C172     1.0000 0.78290  0.71710  0.97310  Biso   1.000  C
  H84      1.0000 0.80490  0.69510  0.95520  Biso   1.000  H
  C173     1.0000 0.71710  0.78290  0.97310  Biso   1.000  C
  H85      1.0000 0.69510  0.80490  0.95520  Biso   1.000  H
  C174     1.0000 0.28290  0.21710  0.97310  Biso   1.000  C
  H86      1.0000 0.30490  0.19510  0.95520  Biso   1.000  H
  C175     1.0000 0.78290  0.28290  0.97310  Biso   1.000  C
  H87      1.0000 0.80490  0.30490  0.95520  Biso   1.000  H
  C176     1.0000 0.21710  0.71710  0.97310  Biso   1.000  C
  H88      1.0000 0.19510  0.69510  0.95520  Biso   1.000  H
  C177     1.0000 0.25000  0.88870  0.75000  Biso   1.000  C
  C178     1.0000 0.25000  0.94620  0.75000  Biso   1.000  C
  C179     1.0000 0.21710  0.97310  0.71710  Biso   1.000  C
  H89      1.0000 0.19510  0.95520  0.69510  Biso   1.000  H
  C180     1.0000 0.75000  0.88870  0.25000  Biso   1.000  C
  C181     1.0000 0.75000  0.94620  0.25000  Biso   1.000  C
  C182     1.0000 0.78290  0.97310  0.28290  Biso   1.000  C
  H90      1.0000 0.80490  0.95520  0.30490  Biso   1.000  H
  C183     1.0000 0.71710  0.97310  0.21710  Biso   1.000  C
  H91      1.0000 0.69510  0.95520  0.19510  Biso   1.000  H
  C184     1.0000 0.28290  0.97310  0.78290  Biso   1.000  C
  H92      1.0000 0.30490  0.95520  0.80490  Biso   1.000  H
  C185     1.0000 0.88870  0.75000  0.25000  Biso   1.000  C
  C186     1.0000 0.94620  0.75000  0.25000  Biso   1.000  C
  C187     1.0000 0.97310  0.71710  0.21710  Biso   1.000  C
  H93      1.0000 0.95520  0.69510  0.19510  Biso   1.000  H
  C188     1.0000 0.88870  0.25000  0.75000  Biso   1.000  C
  C189     1.0000 0.94620  0.25000  0.75000  Biso   1.000  C
  C190     1.0000 0.97310  0.28290  0.78290  Biso   1.000  C
  H94      1.0000 0.95520  0.30490  0.80490  Biso   1.000  H
  C191     1.0000 0.97310  0.78290  0.28290  Biso   1.000  C
  H95      1.0000 0.95520  0.80490  0.30490  Biso   1.000  H
  C192     1.0000 0.97310  0.21710  0.71710  Biso   1.000  C
  H96      1.0000 0.95520  0.19510  0.69510  Biso   1.000  H
  C193     1.0000 0.52593  0.48753  0.58660  Biso   1.000  C
  H97      1.0000 0.52593  0.48753  0.54517  Biso   1.000  H
  H98      1.0000 0.51885  0.46128  0.61785  Biso   1.000  H
  H99      1.0000 0.51268  0.51609  0.61351  Biso   1.000  H
  H100     1.0000 0.56422  0.49252  0.60158  Biso   1.000  H
