# generated using pymatgen
data_NaCo3H9(C9O7)2
_symmetry_space_group_name_H-M   'P 1'
_cell_length_a   18.12490000
_cell_length_b   12.10640000
_cell_length_c   17.73330000
_cell_angle_alpha   90.00000000
_cell_angle_beta   107.30100000
_cell_angle_gamma   90.00000000
_symmetry_Int_Tables_number   1
_chemical_formula_structural   NaCo3H9(C9O7)2
_chemical_formula_sum   'Na4 Co12 H36 C72 O56'
_cell_volume   3715.11633645
_cell_formula_units_Z   4
loop_
 _symmetry_equiv_pos_site_id
 _symmetry_equiv_pos_as_xyz
  1  'x, y, z'
loop_
 _atom_site_type_symbol
 _atom_site_label
 _atom_site_symmetry_multiplicity
 _atom_site_fract_x
 _atom_site_fract_y
 _atom_site_fract_z
 _atom_site_occupancy
  Na  Na0  1  0.59970000  0.00240000  0.99450000  1.0
  Na  Na1  1  0.09970000  0.50240000  0.99450000  1.0
  Na  Na2  1  0.40030000  0.00240000  0.00550000  1.0
  Na  Na3  1  0.90030000  0.50240000  0.00550000  1.0
  Co  Co4  1  0.78998000  0.15718000  0.68643000  1.0
  Co  Co5  1  0.66714000  0.34578000  0.66121000  1.0
  Co  Co6  1  0.80626000  0.31383000  0.83621000  1.0
  Co  Co7  1  0.28998000  0.65718000  0.68643000  1.0
  Co  Co8  1  0.16714000  0.84578000  0.66121000  1.0
  Co  Co9  1  0.30626000  0.81383000  0.83621000  1.0
  Co  Co10  1  0.21002000  0.15718000  0.31357000  1.0
  Co  Co11  1  0.33286000  0.34578000  0.33879000  1.0
  Co  Co12  1  0.19374000  0.31383000  0.16379000  1.0
  Co  Co13  1  0.71002000  0.65718000  0.31357000  1.0
  Co  Co14  1  0.83286000  0.84578000  0.33879000  1.0
  Co  Co15  1  0.69374000  0.81383000  0.16379000  1.0
  H  H16  1  0.46480000  0.95290000  0.87190000  1.0
  H  H17  1  0.46670000  0.06580000  0.87610000  1.0
  H  H18  1  0.54890000  0.23620000  0.44090000  1.0
  H  H19  1  0.53140000  0.04510000  0.25020000  1.0
  H  H20  1  0.71910000  0.01650000  0.44430000  1.0
  H  H21  1  0.54470000  0.55440000  0.74670000  1.0
  H  H22  1  0.51390000  0.75250000  0.91980000  1.0
  H  H23  1  0.72140000  0.60250000  0.94650000  1.0
  H  H24  1  0.69900000  0.20400000  0.76600000  1.0
  H  H25  1  0.96480000  0.45290000  0.87190000  1.0
  H  H26  1  0.96670000  0.56580000  0.87610000  1.0
  H  H27  1  0.04890000  0.73620000  0.44090000  1.0
  H  H28  1  0.03140000  0.54510000  0.25020000  1.0
  H  H29  1  0.21910000  0.51650000  0.44430000  1.0
  H  H30  1  0.04470000  0.05440000  0.74670000  1.0
  H  H31  1  0.01390000  0.25250000  0.91980000  1.0
  H  H32  1  0.22140000  0.10250000  0.94650000  1.0
  H  H33  1  0.19900000  0.70400000  0.76600000  1.0
  H  H34  1  0.53520000  0.95290000  0.12810000  1.0
  H  H35  1  0.53330000  0.06580000  0.12390000  1.0
  H  H36  1  0.45110000  0.23620000  0.55910000  1.0
  H  H37  1  0.46860000  0.04510000  0.74980000  1.0
  H  H38  1  0.28090000  0.01650000  0.55570000  1.0
  H  H39  1  0.45530000  0.55440000  0.25330000  1.0
  H  H40  1  0.48610000  0.75250000  0.08020000  1.0
  H  H41  1  0.27860000  0.60250000  0.05350000  1.0
  H  H42  1  0.30100000  0.20400000  0.23400000  1.0
  H  H43  1  0.03520000  0.45290000  0.12810000  1.0
  H  H44  1  0.03330000  0.56580000  0.12390000  1.0
  H  H45  1  0.95110000  0.73620000  0.55910000  1.0
  H  H46  1  0.96860000  0.54510000  0.74980000  1.0
  H  H47  1  0.78090000  0.51650000  0.55570000  1.0
  H  H48  1  0.95530000  0.05440000  0.25330000  1.0
  H  H49  1  0.98610000  0.25250000  0.08020000  1.0
  H  H50  1  0.77860000  0.10250000  0.05350000  1.0
  H  H51  1  0.80100000  0.70400000  0.23400000  1.0
  C  C52  1  0.64150000  0.13410000  0.45470000  1.0
  C  C53  1  0.57030000  0.18150000  0.41510000  1.0
  C  C54  1  0.53060000  0.15000000  0.33900000  1.0
  C  C55  1  0.55990000  0.06820000  0.30190000  1.0
  C  C56  1  0.63160000  0.01860000  0.34000000  1.0
  C  C57  1  0.67150000  0.05100000  0.41720000  1.0
  C  C58  1  0.68270000  0.17120000  0.53780000  1.0
  C  C59  1  0.45350000  0.20220000  0.29810000  1.0
  C  C60  1  0.66500000  0.92800000  0.30180000  1.0
  C  C61  1  0.64070000  0.56770000  0.84100000  1.0
  C  C62  1  0.56490000  0.58760000  0.79720000  1.0
  C  C63  1  0.51750000  0.65620000  0.82650000  1.0
  C  C64  1  0.54640000  0.70690000  0.89970000  1.0
  C  C65  1  0.62430000  0.69010000  0.94390000  1.0
  C  C66  1  0.67000000  0.61780000  0.91530000  1.0
  C  C67  1  0.68850000  0.48630000  0.81080000  1.0
  C  C68  1  0.43160000  0.66740000  0.78460000  1.0
  C  C69  1  0.65510000  0.74050000  0.02460000  1.0
  C  C70  1  0.14150000  0.63410000  0.45470000  1.0
  C  C71  1  0.07030000  0.68150000  0.41510000  1.0
  C  C72  1  0.03060000  0.65000000  0.33900000  1.0
  C  C73  1  0.05990000  0.56820000  0.30190000  1.0
  C  C74  1  0.13160000  0.51860000  0.34000000  1.0
  C  C75  1  0.17150000  0.55100000  0.41720000  1.0
  C  C76  1  0.18270000  0.67120000  0.53780000  1.0
  C  C77  1  0.95350000  0.70220000  0.29810000  1.0
  C  C78  1  0.16500000  0.42800000  0.30180000  1.0
  C  C79  1  0.14070000  0.06770000  0.84100000  1.0
  C  C80  1  0.06490000  0.08760000  0.79720000  1.0
  C  C81  1  0.01750000  0.15620000  0.82650000  1.0
  C  C82  1  0.04640000  0.20690000  0.89970000  1.0
  C  C83  1  0.12430000  0.19010000  0.94390000  1.0
  C  C84  1  0.17000000  0.11780000  0.91530000  1.0
  C  C85  1  0.18850000  0.98630000  0.81080000  1.0
  C  C86  1  0.93160000  0.16740000  0.78460000  1.0
  C  C87  1  0.15510000  0.24050000  0.02460000  1.0
  C  C88  1  0.35850000  0.13410000  0.54530000  1.0
  C  C89  1  0.42970000  0.18150000  0.58490000  1.0
  C  C90  1  0.46940000  0.15000000  0.66100000  1.0
  C  C91  1  0.44010000  0.06820000  0.69810000  1.0
  C  C92  1  0.36840000  0.01860000  0.66000000  1.0
  C  C93  1  0.32850000  0.05100000  0.58280000  1.0
  C  C94  1  0.31730000  0.17120000  0.46220000  1.0
  C  C95  1  0.54650000  0.20220000  0.70190000  1.0
  C  C96  1  0.33500000  0.92800000  0.69820000  1.0
  C  C97  1  0.35930000  0.56770000  0.15900000  1.0
  C  C98  1  0.43510000  0.58760000  0.20280000  1.0
  C  C99  1  0.48250000  0.65620000  0.17350000  1.0
  C  C100  1  0.45360000  0.70690000  0.10030000  1.0
  C  C101  1  0.37570000  0.69010000  0.05610000  1.0
  C  C102  1  0.33000000  0.61780000  0.08470000  1.0
  C  C103  1  0.31150000  0.48630000  0.18920000  1.0
  C  C104  1  0.56840000  0.66740000  0.21540000  1.0
  C  C105  1  0.34490000  0.74050000  0.97540000  1.0
  C  C106  1  0.85850000  0.63410000  0.54530000  1.0
  C  C107  1  0.92970000  0.68150000  0.58490000  1.0
  C  C108  1  0.96940000  0.65000000  0.66100000  1.0
  C  C109  1  0.94010000  0.56820000  0.69810000  1.0
  C  C110  1  0.86840000  0.51860000  0.66000000  1.0
  C  C111  1  0.82850000  0.55100000  0.58280000  1.0
  C  C112  1  0.81730000  0.67120000  0.46220000  1.0
  C  C113  1  0.04650000  0.70220000  0.70190000  1.0
  C  C114  1  0.83500000  0.42800000  0.69820000  1.0
  C  C115  1  0.85930000  0.06770000  0.15900000  1.0
  C  C116  1  0.93510000  0.08760000  0.20280000  1.0
  C  C117  1  0.98250000  0.15620000  0.17350000  1.0
  C  C118  1  0.95360000  0.20690000  0.10030000  1.0
  C  C119  1  0.87570000  0.19010000  0.05610000  1.0
  C  C120  1  0.83000000  0.11780000  0.08470000  1.0
  C  C121  1  0.81150000  0.98630000  0.18920000  1.0
  C  C122  1  0.06840000  0.16740000  0.21540000  1.0
  C  C123  1  0.84490000  0.24050000  0.97540000  1.0
  O  O124  1  0.74830000  0.13390000  0.57020000  1.0
  O  O125  1  0.64540000  0.23360000  0.56820000  1.0
  O  O126  1  0.43960000  0.29440000  0.32550000  1.0
  O  O127  1  0.40660000  0.15260000  0.24210000  1.0
  O  O128  1  0.64190000  0.92000000  0.22780000  1.0
  O  O129  1  0.71380000  0.86490000  0.34740000  1.0
  O  O130  1  0.67070000  0.47540000  0.73820000  1.0
  O  O131  1  0.74320000  0.43960000  0.86220000  1.0
  O  O132  1  0.40690000  0.64360000  0.71150000  1.0
  O  O133  1  0.38910000  0.69760000  0.82390000  1.0
  O  O134  1  0.71370000  0.70310000  0.07290000  1.0
  O  O135  1  0.61920000  0.82410000  0.04170000  1.0
  O  O136  1  0.72840000  0.23590000  0.74480000  1.0
  O  O137  1  0.47620000  0.00820000  0.90260000  1.0
  O  O138  1  0.24830000  0.63390000  0.57020000  1.0
  O  O139  1  0.14540000  0.73360000  0.56820000  1.0
  O  O140  1  0.93960000  0.79440000  0.32550000  1.0
  O  O141  1  0.90660000  0.65260000  0.24210000  1.0
  O  O142  1  0.14190000  0.42000000  0.22780000  1.0
  O  O143  1  0.21380000  0.36490000  0.34740000  1.0
  O  O144  1  0.17070000  0.97540000  0.73820000  1.0
  O  O145  1  0.24320000  0.93960000  0.86220000  1.0
  O  O146  1  0.90690000  0.14360000  0.71150000  1.0
  O  O147  1  0.88910000  0.19760000  0.82390000  1.0
  O  O148  1  0.21370000  0.20310000  0.07290000  1.0
  O  O149  1  0.11920000  0.32410000  0.04170000  1.0
  O  O150  1  0.22840000  0.73590000  0.74480000  1.0
  O  O151  1  0.97620000  0.50820000  0.90260000  1.0
  O  O152  1  0.25170000  0.13390000  0.42980000  1.0
  O  O153  1  0.35460000  0.23360000  0.43180000  1.0
  O  O154  1  0.56040000  0.29440000  0.67450000  1.0
  O  O155  1  0.59340000  0.15260000  0.75790000  1.0
  O  O156  1  0.35810000  0.92000000  0.77220000  1.0
  O  O157  1  0.28620000  0.86490000  0.65260000  1.0
  O  O158  1  0.32930000  0.47540000  0.26180000  1.0
  O  O159  1  0.25680000  0.43960000  0.13780000  1.0
  O  O160  1  0.59310000  0.64360000  0.28850000  1.0
  O  O161  1  0.61090000  0.69760000  0.17610000  1.0
  O  O162  1  0.28630000  0.70310000  0.92710000  1.0
  O  O163  1  0.38080000  0.82410000  0.95830000  1.0
  O  O164  1  0.27160000  0.23590000  0.25520000  1.0
  O  O165  1  0.52380000  0.00820000  0.09740000  1.0
  O  O166  1  0.75170000  0.63390000  0.42980000  1.0
  O  O167  1  0.85460000  0.73360000  0.43180000  1.0
  O  O168  1  0.06040000  0.79440000  0.67450000  1.0
  O  O169  1  0.09340000  0.65260000  0.75790000  1.0
  O  O170  1  0.85810000  0.42000000  0.77220000  1.0
  O  O171  1  0.78620000  0.36490000  0.65260000  1.0
  O  O172  1  0.82930000  0.97540000  0.26180000  1.0
  O  O173  1  0.75680000  0.93960000  0.13780000  1.0
  O  O174  1  0.09310000  0.14360000  0.28850000  1.0
  O  O175  1  0.11090000  0.19760000  0.17610000  1.0
  O  O176  1  0.78630000  0.20310000  0.92710000  1.0
  O  O177  1  0.88080000  0.32410000  0.95830000  1.0
  O  O178  1  0.77160000  0.73590000  0.25520000  1.0
  O  O179  1  0.02380000  0.50820000  0.09740000  1.0
