# generated using pymatgen
data_Cf(CO)6
_symmetry_space_group_name_H-M   'P 1'
_cell_length_a   8.42940000
_cell_length_b   9.30870000
_cell_length_c   16.39900000
_cell_angle_alpha   90.00000000
_cell_angle_beta   100.25700000
_cell_angle_gamma   90.00000000
_symmetry_Int_Tables_number   1
_chemical_formula_structural   Cf(CO)6
_chemical_formula_sum   'Cf4 C24 O24'
_cell_volume   1266.21229171
_cell_formula_units_Z   4
loop_
 _symmetry_equiv_pos_site_id
 _symmetry_equiv_pos_as_xyz
  1  'x, y, z'
loop_
 _atom_site_type_symbol
 _atom_site_label
 _atom_site_symmetry_multiplicity
 _atom_site_fract_x
 _atom_site_fract_y
 _atom_site_fract_z
 _atom_site_occupancy
  Cf  Cf0  1  0.44429000  0.91218000  0.16880000  1.0
  Cf  Cf1  1  0.05571000  0.41218000  0.33120000  1.0
  Cf  Cf2  1  0.55571000  0.08782000  0.83120000  1.0
  Cf  Cf3  1  0.94429000  0.58782000  0.66880000  1.0
  C  C4  1  0.08780000  0.75170000  0.10710000  1.0
  C  C5  1  0.41220000  0.25170000  0.39290000  1.0
  C  C6  1  0.91220000  0.24830000  0.89290000  1.0
  C  C7  1  0.58780000  0.74830000  0.60710000  1.0
  C  C8  1  0.04750000  0.88350000  0.05260000  1.0
  C  C9  1  0.45250000  0.38350000  0.44740000  1.0
  C  C10  1  0.95250000  0.11650000  0.94740000  1.0
  C  C11  1  0.54750000  0.61650000  0.55260000  1.0
  C  C12  1  0.83280000  0.93840000  0.13610000  1.0
  C  C13  1  0.66720000  0.43840000  0.36390000  1.0
  C  C14  1  0.16720000  0.06160000  0.86390000  1.0
  C  C15  1  0.33280000  0.56160000  0.63610000  1.0
  C  C16  1  0.26670000  0.81780000  0.97300000  1.0
  C  C17  1  0.23330000  0.31780000  0.52700000  1.0
  C  C18  1  0.73330000  0.18220000  0.02700000  1.0
  C  C19  1  0.76670000  0.68220000  0.47300000  1.0
  C  C20  1  0.12720000  0.91050000  0.98660000  1.0
  C  C21  1  0.37280000  0.41050000  0.51340000  1.0
  C  C22  1  0.87280000  0.08950000  0.01340000  1.0
  C  C23  1  0.62720000  0.58950000  0.48660000  1.0
  C  C24  1  0.92090000  0.97220000  0.06580000  1.0
  C  C25  1  0.57910000  0.47220000  0.43420000  1.0
  C  C26  1  0.07910000  0.02780000  0.93420000  1.0
  C  C27  1  0.42090000  0.52780000  0.56580000  1.0
  O  O28  1  0.21660000  0.75300000  0.16031000  1.0
  O  O29  1  0.28340000  0.25300000  0.33969000  1.0
  O  O30  1  0.78340000  0.24700000  0.83969000  1.0
  O  O31  1  0.71660000  0.74700000  0.66031000  1.0
  O  O32  1  0.98950000  0.65050000  0.09599000  1.0
  O  O33  1  0.51050000  0.15050000  0.40401000  1.0
  O  O34  1  0.01050000  0.34950000  0.90401000  1.0
  O  O35  1  0.48950000  0.84950000  0.59599000  1.0
  O  O36  1  0.91420000  0.91470000  0.20593000  1.0
  O  O37  1  0.58580000  0.41470000  0.29407000  1.0
  O  O38  1  0.08580000  0.08530000  0.79407000  1.0
  O  O39  1  0.41420000  0.58530000  0.70593000  1.0
  O  O40  1  0.38830000  0.81320000  0.03039000  1.0
  O  O41  1  0.11170000  0.31320000  0.46961000  1.0
  O  O42  1  0.61170000  0.18680000  0.96961000  1.0
  O  O43  1  0.88830000  0.68680000  0.53039000  1.0
  O  O44  1  0.25620000  0.74910000  0.90588000  1.0
  O  O45  1  0.24380000  0.24910000  0.59412000  1.0
  O  O46  1  0.74380000  0.25090000  0.09412000  1.0
  O  O47  1  0.75620000  0.75090000  0.40588000  1.0
  O  O48  1  0.68170000  0.93660000  0.11685000  1.0
  O  O49  1  0.81830000  0.43660000  0.38315000  1.0
  O  O50  1  0.31830000  0.06340000  0.88315000  1.0
  O  O51  1  0.18170000  0.56340000  0.61685000  1.0
