# generated using pymatgen
data_Cu48H96C288HeO192
_symmetry_space_group_name_H-M   'P 1'
_cell_length_a   26.34300000
_cell_length_b   26.34300000
_cell_length_c   26.34300000
_cell_angle_alpha   90.00000000
_cell_angle_beta   90.00000000
_cell_angle_gamma   90.00000000
_symmetry_Int_Tables_number   1
_chemical_formula_structural   Cu48H96C288HO192
_chemical_formula_sum   'Cu48 H96 C288 H1 O192'
_cell_volume   18280.82097561
_cell_formula_units_Z   1
loop_
 _symmetry_equiv_pos_site_id
 _symmetry_equiv_pos_as_xyz
  1  'x, y, z'
loop_
 _atom_site_type_symbol
 _atom_site_label
 _atom_site_symmetry_multiplicity
 _atom_site_fract_x
 _atom_site_fract_y
 _atom_site_fract_z
 _atom_site_occupancy
  Cu  Cu0  1  0.28500000  0.28500000  0.00000000  1.0
  Cu  Cu1  1  0.71500000  0.28500000  0.00000000  1.0
  Cu  Cu2  1  0.71500000  0.71500000  0.00000000  1.0
  Cu  Cu3  1  0.28500000  0.71500000  0.00000000  1.0
  Cu  Cu4  1  0.00000000  0.28500000  0.28500000  1.0
  Cu  Cu5  1  0.71500000  0.00000000  0.28500000  1.0
  Cu  Cu6  1  0.00000000  0.71500000  0.28500000  1.0
  Cu  Cu7  1  0.28500000  0.00000000  0.28500000  1.0
  Cu  Cu8  1  0.00000000  0.71500000  0.71500000  1.0
  Cu  Cu9  1  0.28500000  0.00000000  0.71500000  1.0
  Cu  Cu10  1  0.00000000  0.28500000  0.71500000  1.0
  Cu  Cu11  1  0.71500000  0.00000000  0.71500000  1.0
  Cu  Cu12  1  0.28500000  0.78500000  0.50000000  1.0
  Cu  Cu13  1  0.71500000  0.78500000  0.50000000  1.0
  Cu  Cu14  1  0.71500000  0.21500000  0.50000000  1.0
  Cu  Cu15  1  0.28500000  0.21500000  0.50000000  1.0
  Cu  Cu16  1  0.00000000  0.78500000  0.78500000  1.0
  Cu  Cu17  1  0.71500000  0.50000000  0.78500000  1.0
  Cu  Cu18  1  0.00000000  0.21500000  0.78500000  1.0
  Cu  Cu19  1  0.28500000  0.50000000  0.78500000  1.0
  Cu  Cu20  1  0.00000000  0.21500000  0.21500000  1.0
  Cu  Cu21  1  0.28500000  0.50000000  0.21500000  1.0
  Cu  Cu22  1  0.00000000  0.78500000  0.21500000  1.0
  Cu  Cu23  1  0.71500000  0.50000000  0.21500000  1.0
  Cu  Cu24  1  0.78500000  0.28500000  0.50000000  1.0
  Cu  Cu25  1  0.21500000  0.28500000  0.50000000  1.0
  Cu  Cu26  1  0.21500000  0.71500000  0.50000000  1.0
  Cu  Cu27  1  0.78500000  0.71500000  0.50000000  1.0
  Cu  Cu28  1  0.50000000  0.28500000  0.78500000  1.0
  Cu  Cu29  1  0.21500000  0.00000000  0.78500000  1.0
  Cu  Cu30  1  0.50000000  0.71500000  0.78500000  1.0
  Cu  Cu31  1  0.78500000  0.00000000  0.78500000  1.0
  Cu  Cu32  1  0.50000000  0.71500000  0.21500000  1.0
  Cu  Cu33  1  0.78500000  0.00000000  0.21500000  1.0
  Cu  Cu34  1  0.50000000  0.28500000  0.21500000  1.0
  Cu  Cu35  1  0.21500000  0.00000000  0.21500000  1.0
  Cu  Cu36  1  0.78500000  0.78500000  0.00000000  1.0
  Cu  Cu37  1  0.21500000  0.78500000  0.00000000  1.0
  Cu  Cu38  1  0.21500000  0.21500000  0.00000000  1.0
  Cu  Cu39  1  0.78500000  0.21500000  0.00000000  1.0
  Cu  Cu40  1  0.50000000  0.78500000  0.28500000  1.0
  Cu  Cu41  1  0.21500000  0.50000000  0.28500000  1.0
  Cu  Cu42  1  0.50000000  0.21500000  0.28500000  1.0
  Cu  Cu43  1  0.78500000  0.50000000  0.28500000  1.0
  Cu  Cu44  1  0.50000000  0.21500000  0.71500000  1.0
  Cu  Cu45  1  0.78500000  0.50000000  0.71500000  1.0
  Cu  Cu46  1  0.50000000  0.78500000  0.71500000  1.0
  Cu  Cu47  1  0.21500000  0.50000000  0.71500000  1.0
  H  H48  1  0.38000000  0.22800000  0.88000000  1.0
  H  H49  1  0.77200000  0.38000000  0.88000000  1.0
  H  H50  1  0.62000000  0.77200000  0.88000000  1.0
  H  H51  1  0.22800000  0.62000000  0.88000000  1.0
  H  H52  1  0.38000000  0.77200000  0.12000000  1.0
  H  H53  1  0.22800000  0.38000000  0.12000000  1.0
  H  H54  1  0.62000000  0.22800000  0.12000000  1.0
  H  H55  1  0.77200000  0.62000000  0.12000000  1.0
  H  H56  1  0.88000000  0.38000000  0.22800000  1.0
  H  H57  1  0.62000000  0.88000000  0.22800000  1.0
  H  H58  1  0.12000000  0.62000000  0.22800000  1.0
  H  H59  1  0.38000000  0.12000000  0.22800000  1.0
  H  H60  1  0.88000000  0.62000000  0.77200000  1.0
  H  H61  1  0.38000000  0.88000000  0.77200000  1.0
  H  H62  1  0.12000000  0.38000000  0.77200000  1.0
  H  H63  1  0.62000000  0.12000000  0.77200000  1.0
  H  H64  1  0.22800000  0.88000000  0.38000000  1.0
  H  H65  1  0.22800000  0.12000000  0.62000000  1.0
  H  H66  1  0.88000000  0.22800000  0.62000000  1.0
  H  H67  1  0.77200000  0.88000000  0.62000000  1.0
  H  H68  1  0.12000000  0.77200000  0.62000000  1.0
  H  H69  1  0.77200000  0.12000000  0.38000000  1.0
  H  H70  1  0.88000000  0.77200000  0.38000000  1.0
  H  H71  1  0.12000000  0.22800000  0.38000000  1.0
  H  H72  1  0.62000000  0.77200000  0.12000000  1.0
  H  H73  1  0.22800000  0.62000000  0.12000000  1.0
  H  H74  1  0.38000000  0.22800000  0.12000000  1.0
  H  H75  1  0.77200000  0.38000000  0.12000000  1.0
  H  H76  1  0.62000000  0.22800000  0.88000000  1.0
  H  H77  1  0.77200000  0.62000000  0.88000000  1.0
  H  H78  1  0.38000000  0.77200000  0.88000000  1.0
  H  H79  1  0.22800000  0.38000000  0.88000000  1.0
  H  H80  1  0.12000000  0.62000000  0.77200000  1.0
  H  H81  1  0.38000000  0.12000000  0.77200000  1.0
  H  H82  1  0.88000000  0.38000000  0.77200000  1.0
  H  H83  1  0.62000000  0.88000000  0.77200000  1.0
  H  H84  1  0.12000000  0.38000000  0.22800000  1.0
  H  H85  1  0.62000000  0.12000000  0.22800000  1.0
  H  H86  1  0.88000000  0.62000000  0.22800000  1.0
  H  H87  1  0.38000000  0.88000000  0.22800000  1.0
  H  H88  1  0.77200000  0.12000000  0.62000000  1.0
  H  H89  1  0.77200000  0.88000000  0.38000000  1.0
  H  H90  1  0.12000000  0.77200000  0.38000000  1.0
  H  H91  1  0.22800000  0.12000000  0.38000000  1.0
  H  H92  1  0.88000000  0.22800000  0.38000000  1.0
  H  H93  1  0.22800000  0.88000000  0.62000000  1.0
  H  H94  1  0.12000000  0.22800000  0.62000000  1.0
  H  H95  1  0.88000000  0.77200000  0.62000000  1.0
  H  H96  1  0.38000000  0.72800000  0.38000000  1.0
  H  H97  1  0.62000000  0.27200000  0.38000000  1.0
  H  H98  1  0.38000000  0.27200000  0.62000000  1.0
  H  H99  1  0.62000000  0.72800000  0.62000000  1.0
  H  H100  1  0.88000000  0.88000000  0.72800000  1.0
  H  H101  1  0.62000000  0.38000000  0.72800000  1.0
  H  H102  1  0.12000000  0.12000000  0.72800000  1.0
  H  H103  1  0.38000000  0.62000000  0.72800000  1.0
  H  H104  1  0.88000000  0.12000000  0.27200000  1.0
  H  H105  1  0.38000000  0.38000000  0.27200000  1.0
  H  H106  1  0.12000000  0.88000000  0.27200000  1.0
  H  H107  1  0.62000000  0.62000000  0.27200000  1.0
  H  H108  1  0.88000000  0.72800000  0.12000000  1.0
  H  H109  1  0.12000000  0.27200000  0.12000000  1.0
  H  H110  1  0.88000000  0.27200000  0.88000000  1.0
  H  H111  1  0.12000000  0.72800000  0.88000000  1.0
  H  H112  1  0.62000000  0.27200000  0.62000000  1.0
  H  H113  1  0.38000000  0.72800000  0.62000000  1.0
  H  H114  1  0.62000000  0.72800000  0.38000000  1.0
  H  H115  1  0.38000000  0.27200000  0.38000000  1.0
  H  H116  1  0.12000000  0.12000000  0.27200000  1.0
  H  H117  1  0.38000000  0.62000000  0.27200000  1.0
  H  H118  1  0.88000000  0.88000000  0.27200000  1.0
  H  H119  1  0.62000000  0.38000000  0.27200000  1.0
  H  H120  1  0.12000000  0.88000000  0.72800000  1.0
  H  H121  1  0.62000000  0.62000000  0.72800000  1.0
  H  H122  1  0.88000000  0.12000000  0.72800000  1.0
  H  H123  1  0.38000000  0.38000000  0.72800000  1.0
  H  H124  1  0.12000000  0.27200000  0.88000000  1.0
  H  H125  1  0.88000000  0.72800000  0.88000000  1.0
  H  H126  1  0.12000000  0.72800000  0.12000000  1.0
  H  H127  1  0.88000000  0.27200000  0.12000000  1.0
  H  H128  1  0.27200000  0.38000000  0.38000000  1.0
  H  H129  1  0.72800000  0.62000000  0.38000000  1.0
  H  H130  1  0.72800000  0.38000000  0.62000000  1.0
  H  H131  1  0.27200000  0.62000000  0.62000000  1.0
  H  H132  1  0.72800000  0.88000000  0.88000000  1.0
  H  H133  1  0.72800000  0.12000000  0.12000000  1.0
  H  H134  1  0.27200000  0.88000000  0.12000000  1.0
  H  H135  1  0.27200000  0.12000000  0.88000000  1.0
  H  H136  1  0.72800000  0.62000000  0.62000000  1.0
  H  H137  1  0.27200000  0.38000000  0.62000000  1.0
  H  H138  1  0.27200000  0.62000000  0.38000000  1.0
  H  H139  1  0.72800000  0.38000000  0.38000000  1.0
  H  H140  1  0.27200000  0.12000000  0.12000000  1.0
  H  H141  1  0.27200000  0.88000000  0.88000000  1.0
  H  H142  1  0.72800000  0.12000000  0.88000000  1.0
  H  H143  1  0.72800000  0.88000000  0.12000000  1.0
  C  C144  1  0.32200000  0.17800000  0.88700000  1.0
  C  C145  1  0.29700000  0.20300000  0.93100000  1.0
  C  C146  1  0.36600000  0.19900000  0.86600000  1.0
  C  C147  1  0.82200000  0.32200000  0.88700000  1.0
  C  C148  1  0.67800000  0.82200000  0.88700000  1.0
  C  C149  1  0.17800000  0.67800000  0.88700000  1.0
  C  C150  1  0.32200000  0.82200000  0.11300000  1.0
  C  C151  1  0.17800000  0.32200000  0.11300000  1.0
  C  C152  1  0.67800000  0.17800000  0.11300000  1.0
  C  C153  1  0.82200000  0.67800000  0.11300000  1.0
  C  C154  1  0.88700000  0.32200000  0.17800000  1.0
  C  C155  1  0.67800000  0.88700000  0.17800000  1.0
  C  C156  1  0.11300000  0.67800000  0.17800000  1.0
  C  C157  1  0.32200000  0.11300000  0.17800000  1.0
  C  C158  1  0.88700000  0.67800000  0.82200000  1.0
  C  C159  1  0.32200000  0.88700000  0.82200000  1.0
  C  C160  1  0.11300000  0.32200000  0.82200000  1.0
  C  C161  1  0.67800000  0.11300000  0.82200000  1.0
  C  C162  1  0.17800000  0.88700000  0.32200000  1.0
  C  C163  1  0.17800000  0.11300000  0.67800000  1.0
  C  C164  1  0.88700000  0.17800000  0.67800000  1.0
  C  C165  1  0.82200000  0.88700000  0.67800000  1.0
  C  C166  1  0.11300000  0.82200000  0.67800000  1.0
  C  C167  1  0.82200000  0.11300000  0.32200000  1.0
  C  C168  1  0.88700000  0.82200000  0.32200000  1.0
  C  C169  1  0.11300000  0.17800000  0.32200000  1.0
  C  C170  1  0.67800000  0.82200000  0.11300000  1.0
  C  C171  1  0.17800000  0.67800000  0.11300000  1.0
  C  C172  1  0.32200000  0.17800000  0.11300000  1.0
  C  C173  1  0.82200000  0.32200000  0.11300000  1.0
  C  C174  1  0.67800000  0.17800000  0.88700000  1.0
  C  C175  1  0.82200000  0.67800000  0.88700000  1.0
  C  C176  1  0.32200000  0.82200000  0.88700000  1.0
  C  C177  1  0.17800000  0.32200000  0.88700000  1.0
  C  C178  1  0.11300000  0.67800000  0.82200000  1.0
  C  C179  1  0.32200000  0.11300000  0.82200000  1.0
  C  C180  1  0.88700000  0.32200000  0.82200000  1.0
  C  C181  1  0.67800000  0.88700000  0.82200000  1.0
  C  C182  1  0.11300000  0.32200000  0.17800000  1.0
  C  C183  1  0.67800000  0.11300000  0.17800000  1.0
  C  C184  1  0.88700000  0.67800000  0.17800000  1.0
  C  C185  1  0.32200000  0.88700000  0.17800000  1.0
  C  C186  1  0.82200000  0.11300000  0.67800000  1.0
  C  C187  1  0.82200000  0.88700000  0.32200000  1.0
  C  C188  1  0.11300000  0.82200000  0.32200000  1.0
  C  C189  1  0.17800000  0.11300000  0.32200000  1.0
  C  C190  1  0.88700000  0.17800000  0.32200000  1.0
  C  C191  1  0.17800000  0.88700000  0.67800000  1.0
  C  C192  1  0.11300000  0.17800000  0.67800000  1.0
  C  C193  1  0.88700000  0.82200000  0.67800000  1.0
  C  C194  1  0.32200000  0.67800000  0.38700000  1.0
  C  C195  1  0.82200000  0.82200000  0.38700000  1.0
  C  C196  1  0.67800000  0.32200000  0.38700000  1.0
  C  C197  1  0.17800000  0.17800000  0.38700000  1.0
  C  C198  1  0.32200000  0.32200000  0.61300000  1.0
  C  C199  1  0.17800000  0.82200000  0.61300000  1.0
  C  C200  1  0.67800000  0.67800000  0.61300000  1.0
  C  C201  1  0.82200000  0.17800000  0.61300000  1.0
  C  C202  1  0.67800000  0.38700000  0.67800000  1.0
  C  C203  1  0.32200000  0.61300000  0.67800000  1.0
  C  C204  1  0.32200000  0.38700000  0.32200000  1.0
  C  C205  1  0.67800000  0.61300000  0.32200000  1.0
  C  C206  1  0.17800000  0.38700000  0.82200000  1.0
  C  C207  1  0.17800000  0.61300000  0.17800000  1.0
  C  C208  1  0.82200000  0.38700000  0.17800000  1.0
  C  C209  1  0.82200000  0.61300000  0.82200000  1.0
  C  C210  1  0.67800000  0.32200000  0.61300000  1.0
  C  C211  1  0.17800000  0.17800000  0.61300000  1.0
  C  C212  1  0.32200000  0.67800000  0.61300000  1.0
  C  C213  1  0.82200000  0.82200000  0.61300000  1.0
  C  C214  1  0.67800000  0.67800000  0.38700000  1.0
  C  C215  1  0.82200000  0.17800000  0.38700000  1.0
  C  C216  1  0.32200000  0.32200000  0.38700000  1.0
  C  C217  1  0.17800000  0.82200000  0.38700000  1.0
  C  C218  1  0.32200000  0.61300000  0.32200000  1.0
  C  C219  1  0.67800000  0.38700000  0.32200000  1.0
  C  C220  1  0.67800000  0.61300000  0.67800000  1.0
  C  C221  1  0.32200000  0.38700000  0.67800000  1.0
  C  C222  1  0.82200000  0.61300000  0.17800000  1.0
  C  C223  1  0.82200000  0.38700000  0.82200000  1.0
  C  C224  1  0.17800000  0.61300000  0.82200000  1.0
  C  C225  1  0.17800000  0.38700000  0.17800000  1.0
  C  C226  1  0.38700000  0.32200000  0.67800000  1.0
  C  C227  1  0.61300000  0.67800000  0.67800000  1.0
  C  C228  1  0.38700000  0.67800000  0.32200000  1.0
  C  C229  1  0.61300000  0.32200000  0.32200000  1.0
  C  C230  1  0.38700000  0.17800000  0.17800000  1.0
  C  C231  1  0.61300000  0.82200000  0.17800000  1.0
  C  C232  1  0.38700000  0.82200000  0.82200000  1.0
  C  C233  1  0.61300000  0.17800000  0.82200000  1.0
  C  C234  1  0.61300000  0.67800000  0.32200000  1.0
  C  C235  1  0.38700000  0.32200000  0.32200000  1.0
  C  C236  1  0.61300000  0.32200000  0.67800000  1.0
  C  C237  1  0.38700000  0.67800000  0.67800000  1.0
  C  C238  1  0.61300000  0.82200000  0.82200000  1.0
  C  C239  1  0.38700000  0.17800000  0.82200000  1.0
  C  C240  1  0.61300000  0.17800000  0.17800000  1.0
  C  C241  1  0.38700000  0.82200000  0.17800000  1.0
  C  C242  1  0.79700000  0.29700000  0.93100000  1.0
  C  C243  1  0.70300000  0.79700000  0.93100000  1.0
  C  C244  1  0.20300000  0.70300000  0.93100000  1.0
  C  C245  1  0.29700000  0.79700000  0.06900000  1.0
  C  C246  1  0.20300000  0.29700000  0.06900000  1.0
  C  C247  1  0.70300000  0.20300000  0.06900000  1.0
  C  C248  1  0.79700000  0.70300000  0.06900000  1.0
  C  C249  1  0.93100000  0.29700000  0.20300000  1.0
  C  C250  1  0.70300000  0.93100000  0.20300000  1.0
  C  C251  1  0.06900000  0.70300000  0.20300000  1.0
  C  C252  1  0.29700000  0.06900000  0.20300000  1.0
  C  C253  1  0.93100000  0.70300000  0.79700000  1.0
  C  C254  1  0.29700000  0.93100000  0.79700000  1.0
  C  C255  1  0.06900000  0.29700000  0.79700000  1.0
  C  C256  1  0.70300000  0.06900000  0.79700000  1.0
  C  C257  1  0.20300000  0.93100000  0.29700000  1.0
  C  C258  1  0.20300000  0.06900000  0.70300000  1.0
  C  C259  1  0.93100000  0.20300000  0.70300000  1.0
  C  C260  1  0.79700000  0.93100000  0.70300000  1.0
  C  C261  1  0.06900000  0.79700000  0.70300000  1.0
  C  C262  1  0.79700000  0.06900000  0.29700000  1.0
  C  C263  1  0.93100000  0.79700000  0.29700000  1.0
  C  C264  1  0.06900000  0.20300000  0.29700000  1.0
  C  C265  1  0.70300000  0.79700000  0.06900000  1.0
  C  C266  1  0.20300000  0.70300000  0.06900000  1.0
  C  C267  1  0.29700000  0.20300000  0.06900000  1.0
  C  C268  1  0.79700000  0.29700000  0.06900000  1.0
  C  C269  1  0.70300000  0.20300000  0.93100000  1.0
  C  C270  1  0.79700000  0.70300000  0.93100000  1.0
  C  C271  1  0.29700000  0.79700000  0.93100000  1.0
  C  C272  1  0.20300000  0.29700000  0.93100000  1.0
  C  C273  1  0.06900000  0.70300000  0.79700000  1.0
  C  C274  1  0.29700000  0.06900000  0.79700000  1.0
  C  C275  1  0.93100000  0.29700000  0.79700000  1.0
  C  C276  1  0.70300000  0.93100000  0.79700000  1.0
  C  C277  1  0.06900000  0.29700000  0.20300000  1.0
  C  C278  1  0.70300000  0.06900000  0.20300000  1.0
  C  C279  1  0.93100000  0.70300000  0.20300000  1.0
  C  C280  1  0.29700000  0.93100000  0.20300000  1.0
  C  C281  1  0.79700000  0.06900000  0.70300000  1.0
  C  C282  1  0.79700000  0.93100000  0.29700000  1.0
  C  C283  1  0.06900000  0.79700000  0.29700000  1.0
  C  C284  1  0.20300000  0.06900000  0.29700000  1.0
  C  C285  1  0.93100000  0.20300000  0.29700000  1.0
  C  C286  1  0.20300000  0.93100000  0.70300000  1.0
  C  C287  1  0.06900000  0.20300000  0.70300000  1.0
  C  C288  1  0.93100000  0.79700000  0.70300000  1.0
  C  C289  1  0.29700000  0.70300000  0.43100000  1.0
  C  C290  1  0.79700000  0.79700000  0.43100000  1.0
  C  C291  1  0.70300000  0.29700000  0.43100000  1.0
  C  C292  1  0.20300000  0.20300000  0.43100000  1.0
  C  C293  1  0.29700000  0.29700000  0.56900000  1.0
  C  C294  1  0.20300000  0.79700000  0.56900000  1.0
  C  C295  1  0.70300000  0.70300000  0.56900000  1.0
  C  C296  1  0.79700000  0.20300000  0.56900000  1.0
  C  C297  1  0.70300000  0.43100000  0.70300000  1.0
  C  C298  1  0.29700000  0.56900000  0.70300000  1.0
  C  C299  1  0.29700000  0.43100000  0.29700000  1.0
  C  C300  1  0.70300000  0.56900000  0.29700000  1.0
  C  C301  1  0.20300000  0.43100000  0.79700000  1.0
  C  C302  1  0.20300000  0.56900000  0.20300000  1.0
  C  C303  1  0.79700000  0.43100000  0.20300000  1.0
  C  C304  1  0.79700000  0.56900000  0.79700000  1.0
  C  C305  1  0.70300000  0.29700000  0.56900000  1.0
  C  C306  1  0.20300000  0.20300000  0.56900000  1.0
  C  C307  1  0.29700000  0.70300000  0.56900000  1.0
  C  C308  1  0.79700000  0.79700000  0.56900000  1.0
  C  C309  1  0.70300000  0.70300000  0.43100000  1.0
  C  C310  1  0.79700000  0.20300000  0.43100000  1.0
  C  C311  1  0.29700000  0.29700000  0.43100000  1.0
  C  C312  1  0.20300000  0.79700000  0.43100000  1.0
  C  C313  1  0.29700000  0.56900000  0.29700000  1.0
  C  C314  1  0.70300000  0.43100000  0.29700000  1.0
  C  C315  1  0.70300000  0.56900000  0.70300000  1.0
  C  C316  1  0.29700000  0.43100000  0.70300000  1.0
  C  C317  1  0.79700000  0.56900000  0.20300000  1.0
  C  C318  1  0.79700000  0.43100000  0.79700000  1.0
  C  C319  1  0.20300000  0.56900000  0.79700000  1.0
  C  C320  1  0.20300000  0.43100000  0.20300000  1.0
  C  C321  1  0.43100000  0.29700000  0.70300000  1.0
  C  C322  1  0.56900000  0.70300000  0.70300000  1.0
  C  C323  1  0.43100000  0.70300000  0.29700000  1.0
  C  C324  1  0.56900000  0.29700000  0.29700000  1.0
  C  C325  1  0.43100000  0.20300000  0.20300000  1.0
  C  C326  1  0.56900000  0.79700000  0.20300000  1.0
  C  C327  1  0.43100000  0.79700000  0.79700000  1.0
  C  C328  1  0.56900000  0.20300000  0.79700000  1.0
  C  C329  1  0.56900000  0.70300000  0.29700000  1.0
  C  C330  1  0.43100000  0.29700000  0.29700000  1.0
  C  C331  1  0.56900000  0.29700000  0.70300000  1.0
  C  C332  1  0.43100000  0.70300000  0.70300000  1.0
  C  C333  1  0.56900000  0.79700000  0.79700000  1.0
  C  C334  1  0.43100000  0.20300000  0.79700000  1.0
  C  C335  1  0.56900000  0.20300000  0.20300000  1.0
  C  C336  1  0.43100000  0.79700000  0.20300000  1.0
  C  C337  1  0.80100000  0.36600000  0.86600000  1.0
  C  C338  1  0.63500000  0.80100000  0.86600000  1.0
  C  C339  1  0.19900000  0.63500000  0.86600000  1.0
  C  C340  1  0.36600000  0.80100000  0.13500000  1.0
  C  C341  1  0.19900000  0.36600000  0.13500000  1.0
  C  C342  1  0.63500000  0.19900000  0.13500000  1.0
  C  C343  1  0.80100000  0.63500000  0.13500000  1.0
  C  C344  1  0.86600000  0.36600000  0.19900000  1.0
  C  C345  1  0.63500000  0.86600000  0.19900000  1.0
  C  C346  1  0.13500000  0.63500000  0.19900000  1.0
  C  C347  1  0.36600000  0.13500000  0.19900000  1.0
  C  C348  1  0.86600000  0.63500000  0.80100000  1.0
  C  C349  1  0.36600000  0.86600000  0.80100000  1.0
  C  C350  1  0.13500000  0.36600000  0.80100000  1.0
  C  C351  1  0.63500000  0.13500000  0.80100000  1.0
  C  C352  1  0.19900000  0.86600000  0.36600000  1.0
  C  C353  1  0.19900000  0.13500000  0.63500000  1.0
  C  C354  1  0.86600000  0.19900000  0.63500000  1.0
  C  C355  1  0.80100000  0.86600000  0.63500000  1.0
  C  C356  1  0.13500000  0.80100000  0.63500000  1.0
  C  C357  1  0.80100000  0.13500000  0.36600000  1.0
  C  C358  1  0.86600000  0.80100000  0.36600000  1.0
  C  C359  1  0.13500000  0.19900000  0.36600000  1.0
  C  C360  1  0.63500000  0.80100000  0.13500000  1.0
  C  C361  1  0.19900000  0.63500000  0.13500000  1.0
  C  C362  1  0.36600000  0.19900000  0.13500000  1.0
  C  C363  1  0.80100000  0.36600000  0.13500000  1.0
  C  C364  1  0.63500000  0.19900000  0.86600000  1.0
  C  C365  1  0.80100000  0.63500000  0.86600000  1.0
  C  C366  1  0.36600000  0.80100000  0.86600000  1.0
  C  C367  1  0.19900000  0.36600000  0.86600000  1.0
  C  C368  1  0.13500000  0.63500000  0.80100000  1.0
  C  C369  1  0.36600000  0.13500000  0.80100000  1.0
  C  C370  1  0.86600000  0.36600000  0.80100000  1.0
  C  C371  1  0.63500000  0.86600000  0.80100000  1.0
  C  C372  1  0.13500000  0.36600000  0.19900000  1.0
  C  C373  1  0.63500000  0.13500000  0.19900000  1.0
  C  C374  1  0.86600000  0.63500000  0.19900000  1.0
  C  C375  1  0.36600000  0.86600000  0.19900000  1.0
  C  C376  1  0.80100000  0.13500000  0.63500000  1.0
  C  C377  1  0.80100000  0.86600000  0.36600000  1.0
  C  C378  1  0.13500000  0.80100000  0.36600000  1.0
  C  C379  1  0.19900000  0.13500000  0.36600000  1.0
  C  C380  1  0.86600000  0.19900000  0.36600000  1.0
  C  C381  1  0.19900000  0.86600000  0.63500000  1.0
  C  C382  1  0.13500000  0.19900000  0.63500000  1.0
  C  C383  1  0.86600000  0.80100000  0.63500000  1.0
  C  C384  1  0.36600000  0.69900000  0.36600000  1.0
  C  C385  1  0.63500000  0.30100000  0.36600000  1.0
  C  C386  1  0.36600000  0.30100000  0.63500000  1.0
  C  C387  1  0.63500000  0.69900000  0.63500000  1.0
  C  C388  1  0.86600000  0.86600000  0.69900000  1.0
  C  C389  1  0.63500000  0.36600000  0.69900000  1.0
  C  C390  1  0.13500000  0.13500000  0.69900000  1.0
  C  C391  1  0.36600000  0.63500000  0.69900000  1.0
  C  C392  1  0.86600000  0.13500000  0.30100000  1.0
  C  C393  1  0.36600000  0.36600000  0.30100000  1.0
  C  C394  1  0.13500000  0.86600000  0.30100000  1.0
  C  C395  1  0.63500000  0.63500000  0.30100000  1.0
  C  C396  1  0.86600000  0.69900000  0.13500000  1.0
  C  C397  1  0.13500000  0.30100000  0.13500000  1.0
  C  C398  1  0.86600000  0.30100000  0.86600000  1.0
  C  C399  1  0.13500000  0.69900000  0.86600000  1.0
  C  C400  1  0.63500000  0.30100000  0.63500000  1.0
  C  C401  1  0.36600000  0.69900000  0.63500000  1.0
  C  C402  1  0.63500000  0.69900000  0.36600000  1.0
  C  C403  1  0.36600000  0.30100000  0.36600000  1.0
  C  C404  1  0.13500000  0.13500000  0.30100000  1.0
  C  C405  1  0.36600000  0.63500000  0.30100000  1.0
  C  C406  1  0.86600000  0.86600000  0.30100000  1.0
  C  C407  1  0.63500000  0.36600000  0.30100000  1.0
  C  C408  1  0.13500000  0.86600000  0.69900000  1.0
  C  C409  1  0.63500000  0.63500000  0.69900000  1.0
  C  C410  1  0.86600000  0.13500000  0.69900000  1.0
  C  C411  1  0.36600000  0.36600000  0.69900000  1.0
  C  C412  1  0.13500000  0.30100000  0.86600000  1.0
  C  C413  1  0.86600000  0.69900000  0.86600000  1.0
  C  C414  1  0.13500000  0.69900000  0.13500000  1.0
  C  C415  1  0.86600000  0.30100000  0.13500000  1.0
  C  C416  1  0.30100000  0.36600000  0.36600000  1.0
  C  C417  1  0.69900000  0.63500000  0.36600000  1.0
  C  C418  1  0.69900000  0.36600000  0.63500000  1.0
  C  C419  1  0.30100000  0.63500000  0.63500000  1.0
  C  C420  1  0.69900000  0.86600000  0.86600000  1.0
  C  C421  1  0.69900000  0.13500000  0.13500000  1.0
  C  C422  1  0.30100000  0.86600000  0.13500000  1.0
  C  C423  1  0.30100000  0.13500000  0.86600000  1.0
  C  C424  1  0.69900000  0.63500000  0.63500000  1.0
  C  C425  1  0.30100000  0.36600000  0.63500000  1.0
  C  C426  1  0.30100000  0.63500000  0.36600000  1.0
  C  C427  1  0.69900000  0.36600000  0.36600000  1.0
  C  C428  1  0.30100000  0.13500000  0.13500000  1.0
  C  C429  1  0.30100000  0.86600000  0.86600000  1.0
  C  C430  1  0.69900000  0.13500000  0.86600000  1.0
  C  C431  1  0.69900000  0.86600000  0.13500000  1.0
  H  H432  1  0.50000000  0.50000000  0.50000000  1.0
  O  O433  1  0.31700000  0.24300000  0.94800000  1.0
  O  O434  1  0.75700000  0.31700000  0.94800000  1.0
  O  O435  1  0.68300000  0.75700000  0.94800000  1.0
  O  O436  1  0.24300000  0.68300000  0.94800000  1.0
  O  O437  1  0.31700000  0.75700000  0.05200000  1.0
  O  O438  1  0.24300000  0.31700000  0.05200000  1.0
  O  O439  1  0.68300000  0.24300000  0.05200000  1.0
  O  O440  1  0.75700000  0.68300000  0.05200000  1.0
  O  O441  1  0.94800000  0.31700000  0.24300000  1.0
  O  O442  1  0.68300000  0.94800000  0.24300000  1.0
  O  O443  1  0.05200000  0.68300000  0.24300000  1.0
  O  O444  1  0.31700000  0.05200000  0.24300000  1.0
  O  O445  1  0.94800000  0.68300000  0.75700000  1.0
  O  O446  1  0.31700000  0.94800000  0.75700000  1.0
  O  O447  1  0.05200000  0.31700000  0.75700000  1.0
  O  O448  1  0.68300000  0.05200000  0.75700000  1.0
  O  O449  1  0.24300000  0.94800000  0.31700000  1.0
  O  O450  1  0.24300000  0.05200000  0.68300000  1.0
  O  O451  1  0.94800000  0.24300000  0.68300000  1.0
  O  O452  1  0.75700000  0.94800000  0.68300000  1.0
  O  O453  1  0.05200000  0.75700000  0.68300000  1.0
  O  O454  1  0.75700000  0.05200000  0.31700000  1.0
  O  O455  1  0.94800000  0.75700000  0.31700000  1.0
  O  O456  1  0.05200000  0.24300000  0.31700000  1.0
  O  O457  1  0.68300000  0.75700000  0.05200000  1.0
  O  O458  1  0.24300000  0.68300000  0.05200000  1.0
  O  O459  1  0.31700000  0.24300000  0.05200000  1.0
  O  O460  1  0.75700000  0.31700000  0.05200000  1.0
  O  O461  1  0.68300000  0.24300000  0.94800000  1.0
  O  O462  1  0.75700000  0.68300000  0.94800000  1.0
  O  O463  1  0.31700000  0.75700000  0.94800000  1.0
  O  O464  1  0.24300000  0.31700000  0.94800000  1.0
  O  O465  1  0.05200000  0.68300000  0.75700000  1.0
  O  O466  1  0.31700000  0.05200000  0.75700000  1.0
  O  O467  1  0.94800000  0.31700000  0.75700000  1.0
  O  O468  1  0.68300000  0.94800000  0.75700000  1.0
  O  O469  1  0.05200000  0.31700000  0.24300000  1.0
  O  O470  1  0.68300000  0.05200000  0.24300000  1.0
  O  O471  1  0.94800000  0.68300000  0.24300000  1.0
  O  O472  1  0.31700000  0.94800000  0.24300000  1.0
  O  O473  1  0.75700000  0.05200000  0.68300000  1.0
  O  O474  1  0.75700000  0.94800000  0.31700000  1.0
  O  O475  1  0.05200000  0.75700000  0.31700000  1.0
  O  O476  1  0.24300000  0.05200000  0.31700000  1.0
  O  O477  1  0.94800000  0.24300000  0.31700000  1.0
  O  O478  1  0.24300000  0.94800000  0.68300000  1.0
  O  O479  1  0.05200000  0.24300000  0.68300000  1.0
  O  O480  1  0.94800000  0.75700000  0.68300000  1.0
  O  O481  1  0.31700000  0.74300000  0.44800000  1.0
  O  O482  1  0.75700000  0.81700000  0.44800000  1.0
  O  O483  1  0.68300000  0.25700000  0.44800000  1.0
  O  O484  1  0.24300000  0.18300000  0.44800000  1.0
  O  O485  1  0.31700000  0.25700000  0.55200000  1.0
  O  O486  1  0.24300000  0.81700000  0.55200000  1.0
  O  O487  1  0.68300000  0.74300000  0.55200000  1.0
  O  O488  1  0.75700000  0.18300000  0.55200000  1.0
  O  O489  1  0.94800000  0.81700000  0.74300000  1.0
  O  O490  1  0.68300000  0.44800000  0.74300000  1.0
  O  O491  1  0.05200000  0.18300000  0.74300000  1.0
  O  O492  1  0.31700000  0.55200000  0.74300000  1.0
  O  O493  1  0.94800000  0.18300000  0.25700000  1.0
  O  O494  1  0.31700000  0.44800000  0.25700000  1.0
  O  O495  1  0.05200000  0.81700000  0.25700000  1.0
  O  O496  1  0.68300000  0.55200000  0.25700000  1.0
  O  O497  1  0.24300000  0.44800000  0.81700000  1.0
  O  O498  1  0.24300000  0.55200000  0.18300000  1.0
  O  O499  1  0.94800000  0.74300000  0.18300000  1.0
  O  O500  1  0.75700000  0.44800000  0.18300000  1.0
  O  O501  1  0.05200000  0.25700000  0.18300000  1.0
  O  O502  1  0.75700000  0.55200000  0.81700000  1.0
  O  O503  1  0.94800000  0.25700000  0.81700000  1.0
  O  O504  1  0.05200000  0.74300000  0.81700000  1.0
  O  O505  1  0.68300000  0.25700000  0.55200000  1.0
  O  O506  1  0.24300000  0.18300000  0.55200000  1.0
  O  O507  1  0.31700000  0.74300000  0.55200000  1.0
  O  O508  1  0.75700000  0.81700000  0.55200000  1.0
  O  O509  1  0.68300000  0.74300000  0.44800000  1.0
  O  O510  1  0.75700000  0.18300000  0.44800000  1.0
  O  O511  1  0.31700000  0.25700000  0.44800000  1.0
  O  O512  1  0.24300000  0.81700000  0.44800000  1.0
  O  O513  1  0.05200000  0.18300000  0.25700000  1.0
  O  O514  1  0.31700000  0.55200000  0.25700000  1.0
  O  O515  1  0.94800000  0.81700000  0.25700000  1.0
  O  O516  1  0.68300000  0.44800000  0.25700000  1.0
  O  O517  1  0.05200000  0.81700000  0.74300000  1.0
  O  O518  1  0.68300000  0.55200000  0.74300000  1.0
  O  O519  1  0.94800000  0.18300000  0.74300000  1.0
  O  O520  1  0.31700000  0.44800000  0.74300000  1.0
  O  O521  1  0.75700000  0.55200000  0.18300000  1.0
  O  O522  1  0.75700000  0.44800000  0.81700000  1.0
  O  O523  1  0.05200000  0.25700000  0.81700000  1.0
  O  O524  1  0.24300000  0.55200000  0.81700000  1.0
  O  O525  1  0.94800000  0.74300000  0.81700000  1.0
  O  O526  1  0.24300000  0.44800000  0.18300000  1.0
  O  O527  1  0.05200000  0.74300000  0.18300000  1.0
  O  O528  1  0.94800000  0.25700000  0.18300000  1.0
  O  O529  1  0.81700000  0.24300000  0.44800000  1.0
  O  O530  1  0.25700000  0.31700000  0.44800000  1.0
  O  O531  1  0.18300000  0.75700000  0.44800000  1.0
  O  O532  1  0.74300000  0.68300000  0.44800000  1.0
  O  O533  1  0.81700000  0.75700000  0.55200000  1.0
  O  O534  1  0.74300000  0.31700000  0.55200000  1.0
  O  O535  1  0.18300000  0.24300000  0.55200000  1.0
  O  O536  1  0.25700000  0.68300000  0.55200000  1.0
  O  O537  1  0.44800000  0.31700000  0.74300000  1.0
  O  O538  1  0.18300000  0.94800000  0.74300000  1.0
  O  O539  1  0.55200000  0.68300000  0.74300000  1.0
  O  O540  1  0.81700000  0.05200000  0.74300000  1.0
  O  O541  1  0.44800000  0.68300000  0.25700000  1.0
  O  O542  1  0.81700000  0.94800000  0.25700000  1.0
  O  O543  1  0.55200000  0.31700000  0.25700000  1.0
  O  O544  1  0.18300000  0.05200000  0.25700000  1.0
  O  O545  1  0.74300000  0.94800000  0.81700000  1.0
  O  O546  1  0.74300000  0.05200000  0.18300000  1.0
  O  O547  1  0.44800000  0.24300000  0.18300000  1.0
  O  O548  1  0.25700000  0.94800000  0.18300000  1.0
  O  O549  1  0.55200000  0.75700000  0.18300000  1.0
  O  O550  1  0.25700000  0.05200000  0.81700000  1.0
  O  O551  1  0.44800000  0.75700000  0.81700000  1.0
  O  O552  1  0.55200000  0.24300000  0.81700000  1.0
  O  O553  1  0.18300000  0.75700000  0.55200000  1.0
  O  O554  1  0.74300000  0.68300000  0.55200000  1.0
  O  O555  1  0.81700000  0.24300000  0.55200000  1.0
  O  O556  1  0.25700000  0.31700000  0.55200000  1.0
  O  O557  1  0.18300000  0.24300000  0.44800000  1.0
  O  O558  1  0.25700000  0.68300000  0.44800000  1.0
  O  O559  1  0.81700000  0.75700000  0.44800000  1.0
  O  O560  1  0.74300000  0.31700000  0.44800000  1.0
  O  O561  1  0.55200000  0.68300000  0.25700000  1.0
  O  O562  1  0.81700000  0.05200000  0.25700000  1.0
  O  O563  1  0.44800000  0.31700000  0.25700000  1.0
  O  O564  1  0.18300000  0.94800000  0.25700000  1.0
  O  O565  1  0.55200000  0.31700000  0.74300000  1.0
  O  O566  1  0.18300000  0.05200000  0.74300000  1.0
  O  O567  1  0.44800000  0.68300000  0.74300000  1.0
  O  O568  1  0.81700000  0.94800000  0.74300000  1.0
  O  O569  1  0.25700000  0.05200000  0.18300000  1.0
  O  O570  1  0.25700000  0.94800000  0.81700000  1.0
  O  O571  1  0.55200000  0.75700000  0.81700000  1.0
  O  O572  1  0.74300000  0.05200000  0.81700000  1.0
  O  O573  1  0.44800000  0.24300000  0.81700000  1.0
  O  O574  1  0.74300000  0.94800000  0.18300000  1.0
  O  O575  1  0.55200000  0.24300000  0.18300000  1.0
  O  O576  1  0.44800000  0.75700000  0.18300000  1.0
  O  O577  1  0.81700000  0.74300000  0.94800000  1.0
  O  O578  1  0.25700000  0.81700000  0.94800000  1.0
  O  O579  1  0.18300000  0.25700000  0.94800000  1.0
  O  O580  1  0.74300000  0.18300000  0.94800000  1.0
  O  O581  1  0.81700000  0.25700000  0.05200000  1.0
  O  O582  1  0.74300000  0.81700000  0.05200000  1.0
  O  O583  1  0.18300000  0.74300000  0.05200000  1.0
  O  O584  1  0.25700000  0.18300000  0.05200000  1.0
  O  O585  1  0.44800000  0.81700000  0.24300000  1.0
  O  O586  1  0.18300000  0.44800000  0.24300000  1.0
  O  O587  1  0.55200000  0.18300000  0.24300000  1.0
  O  O588  1  0.81700000  0.55200000  0.24300000  1.0
  O  O589  1  0.44800000  0.18300000  0.75700000  1.0
  O  O590  1  0.81700000  0.44800000  0.75700000  1.0
  O  O591  1  0.55200000  0.81700000  0.75700000  1.0
  O  O592  1  0.18300000  0.55200000  0.75700000  1.0
  O  O593  1  0.74300000  0.44800000  0.31700000  1.0
  O  O594  1  0.74300000  0.55200000  0.68300000  1.0
  O  O595  1  0.44800000  0.74300000  0.68300000  1.0
  O  O596  1  0.25700000  0.44800000  0.68300000  1.0
  O  O597  1  0.55200000  0.25700000  0.68300000  1.0
  O  O598  1  0.25700000  0.55200000  0.31700000  1.0
  O  O599  1  0.44800000  0.25700000  0.31700000  1.0
  O  O600  1  0.55200000  0.74300000  0.31700000  1.0
  O  O601  1  0.18300000  0.25700000  0.05200000  1.0
  O  O602  1  0.74300000  0.18300000  0.05200000  1.0
  O  O603  1  0.81700000  0.74300000  0.05200000  1.0
  O  O604  1  0.25700000  0.81700000  0.05200000  1.0
  O  O605  1  0.18300000  0.74300000  0.94800000  1.0
  O  O606  1  0.25700000  0.18300000  0.94800000  1.0
  O  O607  1  0.81700000  0.25700000  0.94800000  1.0
  O  O608  1  0.74300000  0.81700000  0.94800000  1.0
  O  O609  1  0.55200000  0.18300000  0.75700000  1.0
  O  O610  1  0.81700000  0.55200000  0.75700000  1.0
  O  O611  1  0.44800000  0.81700000  0.75700000  1.0
  O  O612  1  0.18300000  0.44800000  0.75700000  1.0
  O  O613  1  0.55200000  0.81700000  0.24300000  1.0
  O  O614  1  0.18300000  0.55200000  0.24300000  1.0
  O  O615  1  0.44800000  0.18300000  0.24300000  1.0
  O  O616  1  0.81700000  0.44800000  0.24300000  1.0
  O  O617  1  0.25700000  0.55200000  0.68300000  1.0
  O  O618  1  0.25700000  0.44800000  0.31700000  1.0
  O  O619  1  0.55200000  0.25700000  0.31700000  1.0
  O  O620  1  0.74300000  0.55200000  0.31700000  1.0
  O  O621  1  0.44800000  0.74300000  0.31700000  1.0
  O  O622  1  0.74300000  0.44800000  0.68300000  1.0
  O  O623  1  0.55200000  0.74300000  0.68300000  1.0
  O  O624  1  0.44800000  0.25700000  0.68300000  1.0
