# generated using pymatgen
data_La2H4C11N4O11
_symmetry_space_group_name_H-M   'P 1'
_cell_length_a   8.52100000
_cell_length_b   15.38000000
_cell_length_c   18.47700000
_cell_angle_alpha   90.00000000
_cell_angle_beta   90.00000000
_cell_angle_gamma   90.00000000
_symmetry_Int_Tables_number   1
_chemical_formula_structural   La2H4C11N4O11
_chemical_formula_sum   'La8 H16 C44 N16 O44'
_cell_volume   2421.46591146
_cell_formula_units_Z   4
loop_
 _symmetry_equiv_pos_site_id
 _symmetry_equiv_pos_as_xyz
  1  'x, y, z'
loop_
 _atom_site_type_symbol
 _atom_site_label
 _atom_site_symmetry_multiplicity
 _atom_site_fract_x
 _atom_site_fract_y
 _atom_site_fract_z
 _atom_site_occupancy
  La  La0  1  0.65604000  0.71554000  0.38324000  1.0
  La  La1  1  0.84396000  0.21554000  0.61676000  1.0
  La  La2  1  0.34396000  0.28446000  0.88324000  1.0
  La  La3  1  0.15604000  0.78446000  0.11676000  1.0
  La  La4  1  0.34396000  0.28446000  0.61676000  1.0
  La  La5  1  0.15604000  0.78446000  0.38324000  1.0
  La  La6  1  0.65604000  0.71554000  0.11676000  1.0
  La  La7  1  0.84396000  0.21554000  0.88324000  1.0
  H  H8  1  0.47960000  0.98100000  0.58630000  1.0
  H  H9  1  0.03330000  0.95100000  0.54420000  1.0
  H  H10  1  0.02040000  0.48100000  0.41370000  1.0
  H  H11  1  0.46670000  0.45100000  0.45580000  1.0
  H  H12  1  0.52040000  0.01900000  0.08630000  1.0
  H  H13  1  0.96670000  0.04900000  0.04420000  1.0
  H  H14  1  0.97960000  0.51900000  0.91370000  1.0
  H  H15  1  0.53330000  0.54900000  0.95580000  1.0
  H  H16  1  0.52040000  0.01900000  0.41370000  1.0
  H  H17  1  0.96670000  0.04900000  0.45580000  1.0
  H  H18  1  0.97960000  0.51900000  0.58630000  1.0
  H  H19  1  0.53330000  0.54900000  0.54420000  1.0
  H  H20  1  0.47960000  0.98100000  0.91370000  1.0
  H  H21  1  0.03330000  0.95100000  0.95580000  1.0
  H  H22  1  0.02040000  0.48100000  0.08630000  1.0
  H  H23  1  0.46670000  0.45100000  0.04420000  1.0
  C  C24  1  0.46910000  0.82190000  0.49650000  1.0
  C  C25  1  0.35910000  0.88500000  0.52810000  1.0
  C  C26  1  0.38330000  0.95970000  0.56900000  1.0
  C  C27  1  0.23730000  0.99600000  0.57890000  1.0
  C  C28  1  0.18590000  0.07860000  0.61220000  1.0
  C  C29  1  0.03090000  0.32190000  0.50350000  1.0
  C  C30  1  0.14090000  0.38500000  0.47190000  1.0
  C  C31  1  0.11670000  0.45970000  0.43100000  1.0
  C  C32  1  0.26270000  0.49600000  0.42110000  1.0
  C  C33  1  0.31410000  0.57860000  0.38780000  1.0
  C  C34  1  0.53090000  0.17810000  0.99650000  1.0
  C  C35  1  0.64090000  0.11500000  0.02810000  1.0
  C  C36  1  0.61670000  0.04030000  0.06900000  1.0
  C  C37  1  0.76270000  0.00400000  0.07890000  1.0
  C  C38  1  0.81410000  0.92140000  0.11220000  1.0
  C  C39  1  0.96910000  0.67810000  0.00350000  1.0
  C  C40  1  0.85910000  0.61500000  0.97190000  1.0
  C  C41  1  0.88330000  0.54030000  0.93100000  1.0
  C  C42  1  0.73730000  0.50400000  0.92110000  1.0
  C  C43  1  0.68590000  0.42140000  0.88780000  1.0
  C  C44  1  0.53090000  0.17810000  0.50350000  1.0
  C  C45  1  0.64090000  0.11500000  0.47190000  1.0
  C  C46  1  0.61670000  0.04030000  0.43100000  1.0
  C  C47  1  0.76270000  0.00400000  0.42110000  1.0
  C  C48  1  0.81410000  0.92140000  0.38780000  1.0
  C  C49  1  0.96910000  0.67810000  0.49650000  1.0
  C  C50  1  0.85910000  0.61500000  0.52810000  1.0
  C  C51  1  0.88330000  0.54030000  0.56900000  1.0
  C  C52  1  0.73730000  0.50400000  0.57890000  1.0
  C  C53  1  0.68590000  0.42140000  0.61220000  1.0
  C  C54  1  0.46910000  0.82190000  0.00350000  1.0
  C  C55  1  0.35910000  0.88500000  0.97190000  1.0
  C  C56  1  0.38330000  0.95970000  0.93100000  1.0
  C  C57  1  0.23730000  0.99600000  0.92110000  1.0
  C  C58  1  0.18590000  0.07860000  0.88780000  1.0
  C  C59  1  0.03090000  0.32190000  0.99650000  1.0
  C  C60  1  0.14090000  0.38500000  0.02810000  1.0
  C  C61  1  0.11670000  0.45970000  0.06900000  1.0
  C  C62  1  0.26270000  0.49600000  0.07890000  1.0
  C  C63  1  0.31410000  0.57860000  0.11220000  1.0
  C  C64  1  0.46970000  0.75090000  0.25000000  1.0
  C  C65  1  0.03030000  0.25090000  0.75000000  1.0
  C  C66  1  0.53030000  0.24910000  0.75000000  1.0
  C  C67  1  0.96970000  0.74910000  0.25000000  1.0
  N  N68  1  0.13420000  0.94230000  0.54510000  1.0
  N  N69  1  0.20430000  0.87500000  0.51360000  1.0
  N  N70  1  0.36580000  0.44230000  0.45490000  1.0
  N  N71  1  0.29570000  0.37500000  0.48640000  1.0
  N  N72  1  0.86580000  0.05770000  0.04510000  1.0
  N  N73  1  0.79570000  0.12500000  0.01360000  1.0
  N  N74  1  0.63420000  0.55770000  0.95490000  1.0
  N  N75  1  0.70430000  0.62500000  0.98640000  1.0
  N  N76  1  0.86580000  0.05770000  0.45490000  1.0
  N  N77  1  0.79570000  0.12500000  0.48640000  1.0
  N  N78  1  0.63420000  0.55770000  0.54510000  1.0
  N  N79  1  0.70430000  0.62500000  0.51360000  1.0
  N  N80  1  0.13420000  0.94230000  0.95490000  1.0
  N  N81  1  0.20430000  0.87500000  0.98640000  1.0
  N  N82  1  0.36580000  0.44230000  0.04510000  1.0
  N  N83  1  0.29570000  0.37500000  0.01360000  1.0
  O  O84  1  0.61030000  0.82460000  0.50990000  1.0
  O  O85  1  0.41100000  0.76590000  0.45420000  1.0
  O  O86  1  0.04280000  0.09410000  0.60910000  1.0
  O  O87  1  0.29000000  0.12530000  0.63870000  1.0
  O  O88  1  0.41330000  0.77350000  0.31080000  1.0
  O  O89  1  0.88970000  0.32460000  0.49010000  1.0
  O  O90  1  0.08900000  0.26590000  0.54580000  1.0
  O  O91  1  0.45720000  0.59410000  0.39090000  1.0
  O  O92  1  0.21000000  0.62530000  0.36130000  1.0
  O  O93  1  0.08670000  0.27350000  0.68920000  1.0
  O  O94  1  0.38970000  0.17540000  0.00990000  1.0
  O  O95  1  0.58900000  0.23410000  0.95420000  1.0
  O  O96  1  0.95720000  0.90590000  0.10910000  1.0
  O  O97  1  0.71000000  0.87470000  0.13870000  1.0
  O  O98  1  0.58670000  0.22650000  0.81080000  1.0
  O  O99  1  0.11030000  0.67540000  0.99010000  1.0
  O  O100  1  0.91100000  0.73410000  0.04580000  1.0
  O  O101  1  0.54280000  0.40590000  0.89090000  1.0
  O  O102  1  0.79000000  0.37470000  0.86130000  1.0
  O  O103  1  0.91330000  0.72650000  0.18920000  1.0
  O  O104  1  0.38970000  0.17540000  0.49010000  1.0
  O  O105  1  0.58900000  0.23410000  0.54580000  1.0
  O  O106  1  0.95720000  0.90590000  0.39090000  1.0
  O  O107  1  0.71000000  0.87470000  0.36130000  1.0
  O  O108  1  0.58670000  0.22650000  0.68920000  1.0
  O  O109  1  0.11030000  0.67540000  0.50990000  1.0
  O  O110  1  0.91100000  0.73410000  0.45420000  1.0
  O  O111  1  0.54280000  0.40590000  0.60910000  1.0
  O  O112  1  0.79000000  0.37470000  0.63870000  1.0
  O  O113  1  0.91330000  0.72650000  0.31080000  1.0
  O  O114  1  0.61030000  0.82460000  0.99010000  1.0
  O  O115  1  0.41100000  0.76590000  0.04580000  1.0
  O  O116  1  0.04280000  0.09410000  0.89090000  1.0
  O  O117  1  0.29000000  0.12530000  0.86130000  1.0
  O  O118  1  0.41330000  0.77350000  0.18920000  1.0
  O  O119  1  0.88970000  0.32460000  0.00990000  1.0
  O  O120  1  0.08900000  0.26590000  0.95420000  1.0
  O  O121  1  0.45720000  0.59410000  0.10910000  1.0
  O  O122  1  0.21000000  0.62530000  0.13870000  1.0
  O  O123  1  0.08670000  0.27350000  0.81080000  1.0
  O  O124  1  0.59640000  0.70570000  0.25000000  1.0
  O  O125  1  0.90360000  0.20570000  0.75000000  1.0
  O  O126  1  0.40360000  0.29430000  0.75000000  1.0
  O  O127  1  0.09640000  0.79430000  0.25000000  1.0
