data_image0
_cell_length_a       19.7567
_cell_length_b       7.4814
_cell_length_c       6.5898
_cell_angle_alpha    90
_cell_angle_beta     105.731
_cell_angle_gamma    90

_symmetry_space_group_name_H-M    "P 1"
_symmetry_int_tables_number       1

loop_
  _symmetry_equiv_pos_as_xyz
  'x, y, z'

loop_
  _atom_site_label
  _atom_site_occupancy
  _atom_site_fract_x
  _atom_site_fract_y
  _atom_site_fract_z
  _atom_site_thermal_displace_type
  _atom_site_B_iso_or_equiv
  _atom_site_type_symbol
  C1       1.0000 0.72510  0.29190  0.28900  Biso   1.000  C 
  C2       1.0000 0.72510  0.70810  0.78900  Biso   1.000  C 
  C3       1.0000 0.22510  0.79190  0.28900  Biso   1.000  C 
  C4       1.0000 0.22510  0.20810  0.78900  Biso   1.000  C 
  C5       1.0000 0.70500  0.20850  0.62700  Biso   1.000  C 
  C6       1.0000 0.70500  0.79150  0.12700  Biso   1.000  C 
  C7       1.0000 0.20500  0.70850  0.62700  Biso   1.000  C 
  C8       1.0000 0.20500  0.29150  0.12700  Biso   1.000  C 
  C9       1.0000 0.67880  0.26850  0.41700  Biso   1.000  C 
  C10      1.0000 0.67880  0.73150  0.91700  Biso   1.000  C 
  C11      1.0000 0.17880  0.76850  0.41700  Biso   1.000  C 
  C12      1.0000 0.17880  0.23150  0.91700  Biso   1.000  C 
  C13      1.0000 0.79760  0.25520  0.37100  Biso   1.000  C 
  C14      1.0000 0.79760  0.74480  0.87100  Biso   1.000  C 
  C15      1.0000 0.29760  0.75520  0.37100  Biso   1.000  C 
  C16      1.0000 0.29760  0.24480  0.87100  Biso   1.000  C 
  C17      1.0000 0.77750  0.17180  0.70900  Biso   1.000  C 
  C18      1.0000 0.77750  0.82820  0.20900  Biso   1.000  C 
  C19      1.0000 0.27750  0.67180  0.70900  Biso   1.000  C 
  C20      1.0000 0.27750  0.32820  0.20900  Biso   1.000  C 
  C21      1.0000 0.82380  0.19520  0.58100  Biso   1.000  C 
  C22      1.0000 0.82380  0.80480  0.08100  Biso   1.000  C 
  C23      1.0000 0.32380  0.69520  0.58100  Biso   1.000  C 
  C24      1.0000 0.32380  0.30480  0.08100  Biso   1.000  C 
  C25      1.0000 0.60620  0.30520  0.33500  Biso   1.000  C 
  C26      1.0000 0.60620  0.69480  0.83500  Biso   1.000  C 
  C27      1.0000 0.10620  0.80520  0.33500  Biso   1.000  C 
  C28      1.0000 0.10620  0.19480  0.83500  Biso   1.000  C 
  O1       1.0000 0.56560  0.28480  0.44700  Biso   1.000  O 
  O2       1.0000 0.56560  0.71520  0.94700  Biso   1.000  O 
  O3       1.0000 0.06560  0.78480  0.44700  Biso   1.000  O 
  O4       1.0000 0.06560  0.21520  0.94700  Biso   1.000  O 
  O5       1.0000 0.58320  0.35800  0.15000  Biso   1.000  O 
  O6       1.0000 0.58320  0.64200  0.65000  Biso   1.000  O 
  O7       1.0000 0.08320  0.85800  0.15000  Biso   1.000  O 
  O8       1.0000 0.08320  0.14200  0.65000  Biso   1.000  O 
  C29      1.0000 0.89640  0.15850  0.66300  Biso   1.000  C 
  C30      1.0000 0.89640  0.84150  0.16300  Biso   1.000  C 
  C31      1.0000 0.39640  0.65850  0.66300  Biso   1.000  C 
  C32      1.0000 0.39640  0.34150  0.16300  Biso   1.000  C 
  O9       1.0000 0.91940  0.10580  0.84800  Biso   1.000  O 
  O10      1.0000 0.91940  0.89420  0.34800  Biso   1.000  O 
  O11      1.0000 0.41940  0.60580  0.84800  Biso   1.000  O 
  O12      1.0000 0.41940  0.39420  0.34800  Biso   1.000  O 
  O13      1.0000 0.93700  0.17890  0.55100  Biso   1.000  O 
  O14      1.0000 0.93700  0.82110  0.05100  Biso   1.000  O 
  O15      1.0000 0.43700  0.67890  0.55100  Biso   1.000  O 
  O16      1.0000 0.43700  0.32110  0.05100  Biso   1.000  O 
  N1       1.0000 0.65870  0.18520  0.75500  Biso   1.000  N 
  N2       1.0000 0.65870  0.81480  0.25500  Biso   1.000  N 
  N3       1.0000 0.15870  0.68520  0.75500  Biso   1.000  N 
  N4       1.0000 0.15870  0.31480  0.25500  Biso   1.000  N 
  Al1      1.0000 0.50000  0.50000  0.50000  Biso   1.000  Al
  Al2      1.0000 0.50000  0.50000  0.00000  Biso   1.000  Al
  Al3      1.0000 0.00000  0.00000  0.50000  Biso   1.000  Al
  Al4      1.0000 0.00000  0.00000  0.00000  Biso   1.000  Al
  O17      1.0000 0.50400  0.38450  0.78200  Biso   1.000  O 
  O18      1.0000 0.50400  0.61550  0.28200  Biso   1.000  O 
  O19      1.0000 0.00400  0.88450  0.78200  Biso   1.000  O 
  O20      1.0000 0.00400  0.11550  0.28200  Biso   1.000  O 
  H1       1.0000 0.83325  0.27319  0.27227  Biso   1.000  H 
  H2       1.0000 0.83325  0.72681  0.77227  Biso   1.000  H 
  H3       1.0000 0.33325  0.77319  0.27227  Biso   1.000  H 
  H4       1.0000 0.33325  0.22681  0.77227  Biso   1.000  H 
  H5       1.0000 0.79767  0.12549  0.87085  Biso   1.000  H 
  H6       1.0000 0.79767  0.87451  0.37085  Biso   1.000  H 
  H7       1.0000 0.29767  0.62549  0.87085  Biso   1.000  H 
  H8       1.0000 0.29767  0.37451  0.37085  Biso   1.000  H 
  H9       1.0000 0.70493  0.33821  0.12715  Biso   1.000  H 
  H10      1.0000 0.70493  0.66179  0.62715  Biso   1.000  H 
  H11      1.0000 0.20493  0.83821  0.12715  Biso   1.000  H 
  H12      1.0000 0.20493  0.16179  0.62715  Biso   1.000  H 
  H14      1.0000 0.67748  0.85790  0.40588  Biso   1.000  H 
  H15      1.0000 0.17748  0.64210  0.90588  Biso   1.000  H 
  H16      1.0000 0.17748  0.35790  0.40588  Biso   1.000  H 
  H17      1.0000 0.60666  0.21157  0.69605  Biso   1.000  H 
  H18      1.0000 0.60666  0.78843  0.19605  Biso   1.000  H 
  H19      1.0000 0.10666  0.71157  0.69605  Biso   1.000  H 
  H20      1.0000 0.10666  0.28843  0.19605  Biso   1.000  H 
