# generated using pymatgen
data_Al4H19C32(NO5)4
_symmetry_space_group_name_H-M   'P 1'
_cell_length_a   19.75670000
_cell_length_b   7.48140000
_cell_length_c   6.58980000
_cell_angle_alpha   90.00000000
_cell_angle_beta   105.73100000
_cell_angle_gamma   90.00000000
_symmetry_Int_Tables_number   1
_chemical_formula_structural   Al4H19C32(NO5)4
_chemical_formula_sum   'Al4 H19 C32 N4 O20'
_cell_volume   937.54181282
_cell_formula_units_Z   1
loop_
 _symmetry_equiv_pos_site_id
 _symmetry_equiv_pos_as_xyz
  1  'x, y, z'
loop_
 _atom_site_type_symbol
 _atom_site_label
 _atom_site_symmetry_multiplicity
 _atom_site_fract_x
 _atom_site_fract_y
 _atom_site_fract_z
 _atom_site_occupancy
  Al  Al0  1  0.50000000  0.50000000  0.50000000  1.0
  Al  Al1  1  0.50000000  0.50000000  0.00000000  1.0
  Al  Al2  1  0.00000000  0.00000000  0.50000000  1.0
  Al  Al3  1  0.00000000  0.00000000  0.00000000  1.0
  H  H4  1  0.83325000  0.27319000  0.27227000  1.0
  H  H5  1  0.83325000  0.72681000  0.77227000  1.0
  H  H6  1  0.33325000  0.77319000  0.27227000  1.0
  H  H7  1  0.33325000  0.22681000  0.77227000  1.0
  H  H8  1  0.79767000  0.12549000  0.87085000  1.0
  H  H9  1  0.79767000  0.87451000  0.37085000  1.0
  H  H10  1  0.29767000  0.62549000  0.87085000  1.0
  H  H11  1  0.29767000  0.37451000  0.37085000  1.0
  H  H12  1  0.70493000  0.33821000  0.12715000  1.0
  H  H13  1  0.70493000  0.66179000  0.62715000  1.0
  H  H14  1  0.20493000  0.83821000  0.12715000  1.0
  H  H15  1  0.20493000  0.16179000  0.62715000  1.0
  H  H16  1  0.67748000  0.85790000  0.40588000  1.0
  H  H17  1  0.17748000  0.64210000  0.90588000  1.0
  H  H18  1  0.17748000  0.35790000  0.40588000  1.0
  H  H19  1  0.60666000  0.21157000  0.69605000  1.0
  H  H20  1  0.60666000  0.78843000  0.19605000  1.0
  H  H21  1  0.10666000  0.71157000  0.69605000  1.0
  H  H22  1  0.10666000  0.28843000  0.19605000  1.0
  C  C23  1  0.72510000  0.29190000  0.28900000  1.0
  C  C24  1  0.72510000  0.70810000  0.78900000  1.0
  C  C25  1  0.22510000  0.79190000  0.28900000  1.0
  C  C26  1  0.22510000  0.20810000  0.78900000  1.0
  C  C27  1  0.70500000  0.20850000  0.62700000  1.0
  C  C28  1  0.70500000  0.79150000  0.12700000  1.0
  C  C29  1  0.20500000  0.70850000  0.62700000  1.0
  C  C30  1  0.20500000  0.29150000  0.12700000  1.0
  C  C31  1  0.67880000  0.26850000  0.41700000  1.0
  C  C32  1  0.67880000  0.73150000  0.91700000  1.0
  C  C33  1  0.17880000  0.76850000  0.41700000  1.0
  C  C34  1  0.17880000  0.23150000  0.91700000  1.0
  C  C35  1  0.79760000  0.25520000  0.37100000  1.0
  C  C36  1  0.79760000  0.74480000  0.87100000  1.0
  C  C37  1  0.29760000  0.75520000  0.37100000  1.0
  C  C38  1  0.29760000  0.24480000  0.87100000  1.0
  C  C39  1  0.77750000  0.17180000  0.70900000  1.0
  C  C40  1  0.77750000  0.82820000  0.20900000  1.0
  C  C41  1  0.27750000  0.67180000  0.70900000  1.0
  C  C42  1  0.27750000  0.32820000  0.20900000  1.0
  C  C43  1  0.82380000  0.19520000  0.58100000  1.0
  C  C44  1  0.82380000  0.80480000  0.08100000  1.0
  C  C45  1  0.32380000  0.69520000  0.58100000  1.0
  C  C46  1  0.32380000  0.30480000  0.08100000  1.0
  C  C47  1  0.60620000  0.30520000  0.33500000  1.0
  C  C48  1  0.60620000  0.69480000  0.83500000  1.0
  C  C49  1  0.10620000  0.80520000  0.33500000  1.0
  C  C50  1  0.10620000  0.19480000  0.83500000  1.0
  C  C51  1  0.89640000  0.15850000  0.66300000  1.0
  C  C52  1  0.89640000  0.84150000  0.16300000  1.0
  C  C53  1  0.39640000  0.65850000  0.66300000  1.0
  C  C54  1  0.39640000  0.34150000  0.16300000  1.0
  N  N55  1  0.65870000  0.18520000  0.75500000  1.0
  N  N56  1  0.65870000  0.81480000  0.25500000  1.0
  N  N57  1  0.15870000  0.68520000  0.75500000  1.0
  N  N58  1  0.15870000  0.31480000  0.25500000  1.0
  O  O59  1  0.56560000  0.28480000  0.44700000  1.0
  O  O60  1  0.56560000  0.71520000  0.94700000  1.0
  O  O61  1  0.06560000  0.78480000  0.44700000  1.0
  O  O62  1  0.06560000  0.21520000  0.94700000  1.0
  O  O63  1  0.58320000  0.35800000  0.15000000  1.0
  O  O64  1  0.58320000  0.64200000  0.65000000  1.0
  O  O65  1  0.08320000  0.85800000  0.15000000  1.0
  O  O66  1  0.08320000  0.14200000  0.65000000  1.0
  O  O67  1  0.91940000  0.10580000  0.84800000  1.0
  O  O68  1  0.91940000  0.89420000  0.34800000  1.0
  O  O69  1  0.41940000  0.60580000  0.84800000  1.0
  O  O70  1  0.41940000  0.39420000  0.34800000  1.0
  O  O71  1  0.93700000  0.17890000  0.55100000  1.0
  O  O72  1  0.93700000  0.82110000  0.05100000  1.0
  O  O73  1  0.43700000  0.67890000  0.55100000  1.0
  O  O74  1  0.43700000  0.32110000  0.05100000  1.0
  O  O75  1  0.50400000  0.38450000  0.78200000  1.0
  O  O76  1  0.50400000  0.61550000  0.28200000  1.0
  O  O77  1  0.00400000  0.88450000  0.78200000  1.0
  O  O78  1  0.00400000  0.11550000  0.28200000  1.0
