# generated using pymatgen
data_Zn4H12C24O13
_symmetry_space_group_name_H-M   'P 1'
_cell_length_a   26.08900000
_cell_length_b   26.08900000
_cell_length_c   26.08900000
_cell_angle_alpha   90.00000000
_cell_angle_beta   90.00000000
_cell_angle_gamma   90.00000000
_symmetry_Int_Tables_number   1
_chemical_formula_structural   Zn4H12C24O13
_chemical_formula_sum   'Zn32 H96 C192 O104'
_cell_volume   17757.11054297
_cell_formula_units_Z   8
loop_
 _symmetry_equiv_pos_site_id
 _symmetry_equiv_pos_as_xyz
  1  'x, y, z'
loop_
 _atom_site_type_symbol
 _atom_site_label
 _atom_site_symmetry_multiplicity
 _atom_site_fract_x
 _atom_site_fract_y
 _atom_site_fract_z
 _atom_site_occupancy
  Zn  Zn0  1  0.29283000  0.29282000  0.20617000  1
  Zn  Zn1  1  0.70719000  0.70719000  0.79384000  1
  Zn  Zn2  1  0.70719000  0.70719000  0.20617000  1
  Zn  Zn3  1  0.29283000  0.29283000  0.79384000  1
  Zn  Zn4  1  0.70719000  0.29283000  0.79384000  1
  Zn  Zn5  1  0.29283000  0.70718000  0.20617000  1
  Zn  Zn6  1  0.29283000  0.70719000  0.79384000  1
  Zn  Zn7  1  0.70719000  0.29282000  0.20617000  1
  Zn  Zn8  1  0.20617000  0.29282000  0.29282000  1
  Zn  Zn9  1  0.79384000  0.70719000  0.70718000  1
  Zn  Zn10  1  0.20617000  0.70718000  0.70718000  1
  Zn  Zn11  1  0.79384000  0.29282000  0.29282000  1
  Zn  Zn12  1  0.79384000  0.70718000  0.29283000  1
  Zn  Zn13  1  0.20617000  0.29282000  0.70718000  1
  Zn  Zn14  1  0.79384000  0.29282000  0.70718000  1
  Zn  Zn15  1  0.20617000  0.70719000  0.29282000  1
  Zn  Zn16  1  0.29282000  0.20617000  0.29282000  1
  Zn  Zn17  1  0.70719000  0.79384000  0.70718000  1
  Zn  Zn18  1  0.70718000  0.20617000  0.70718000  1
  Zn  Zn19  1  0.29283000  0.79384000  0.29282000  1
  Zn  Zn20  1  0.29282000  0.79384000  0.70719000  1
  Zn  Zn21  1  0.70718000  0.20617000  0.29282000  1
  Zn  Zn22  1  0.70718000  0.79384000  0.29282000  1
  Zn  Zn23  1  0.29282000  0.20617000  0.70719000  1
  Zn  Zn24  1  0.20608000  0.79393000  0.79393000  1
  Zn  Zn25  1  0.79393000  0.20608000  0.20608000  1
  Zn  Zn26  1  0.20608000  0.20608000  0.20608000  1
  Zn  Zn27  1  0.79393000  0.79393000  0.79393000  1
  Zn  Zn28  1  0.79393000  0.20608000  0.79393000  1
  Zn  Zn29  1  0.20608000  0.79393000  0.20608000  1
  Zn  Zn30  1  0.79393000  0.79393000  0.20608000  1
  Zn  Zn31  1  0.20608000  0.20608000  0.79393000  1
  H  H32  1  0.30807000  0.45191000  0.19171000  1
  H  H33  1  0.69195000  0.54810000  0.80830000  1
  H  H34  1  0.69194000  0.54809000  0.19171000  1
  H  H35  1  0.30807000  0.45191000  0.80829000  1
  H  H36  1  0.69195000  0.45191000  0.80830000  1
  H  H37  1  0.30806000  0.54810000  0.19171000  1
  H  H38  1  0.30807000  0.54810000  0.80830000  1
  H  H39  1  0.69194000  0.45191000  0.19171000  1
  H  H40  1  0.19171000  0.30807000  0.45191000  1
  H  H41  1  0.80830000  0.69194000  0.54809000  1
  H  H42  1  0.19171000  0.69194000  0.54810000  1
  H  H43  1  0.80830000  0.30806000  0.45191000  1
  H  H44  1  0.80830000  0.69194000  0.45191000  1
  H  H45  1  0.19171000  0.30807000  0.54809000  1
  H  H46  1  0.80830000  0.30807000  0.54809000  1
  H  H47  1  0.19171000  0.69194000  0.45191000  1
  H  H48  1  0.45191000  0.19171000  0.30807000  1
  H  H49  1  0.54810000  0.80830000  0.69194000  1
  H  H50  1  0.54810000  0.19172000  0.69194000  1
  H  H51  1  0.45191000  0.80830000  0.30807000  1
  H  H52  1  0.45192000  0.80830000  0.69194000  1
  H  H53  1  0.54810000  0.19171000  0.30806000  1
  H  H54  1  0.54810000  0.80830000  0.30806000  1
  H  H55  1  0.45192000  0.19171000  0.69194000  1
  H  H56  1  0.45191000  0.30807000  0.80829000  1
  H  H57  1  0.54810000  0.69194000  0.19171000  1
  H  H58  1  0.54810000  0.69194000  0.80830000  1
  H  H59  1  0.45191000  0.30806000  0.19171000  1
  H  H60  1  0.45191000  0.69194000  0.19171000  1
  H  H61  1  0.54810000  0.30807000  0.80830000  1
  H  H62  1  0.54810000  0.30806000  0.19171000  1
  H  H63  1  0.45191000  0.69195000  0.80830000  1
  H  H64  1  0.30807000  0.19171000  0.54810000  1
  H  H65  1  0.69194000  0.80830000  0.45191000  1
  H  H66  1  0.69194000  0.19171000  0.45191000  1
  H  H67  1  0.30807000  0.80830000  0.54809000  1
  H  H68  1  0.69195000  0.80830000  0.54809000  1
  H  H69  1  0.30807000  0.19171000  0.45191000  1
  H  H70  1  0.30807000  0.80830000  0.45191000  1
  H  H71  1  0.69194000  0.19171000  0.54809000  1
  H  H72  1  0.19171000  0.45192000  0.69194000  1
  H  H73  1  0.80830000  0.54809000  0.30807000  1
  H  H74  1  0.19171000  0.54809000  0.30806000  1
  H  H75  1  0.80830000  0.45191000  0.69194000  1
  H  H76  1  0.80830000  0.45191000  0.30806000  1
  H  H77  1  0.19172000  0.54810000  0.69194000  1
  H  H78  1  0.80830000  0.54810000  0.69194000  1
  H  H79  1  0.19171000  0.45191000  0.30806000  1
  H  H80  1  0.30757000  0.95179000  0.69244000  1
  H  H81  1  0.69244000  0.04822000  0.30757000  1
  H  H82  1  0.69244000  0.04822000  0.69244000  1
  H  H83  1  0.30757000  0.95179000  0.30757000  1
  H  H84  1  0.69244000  0.95179000  0.30757000  1
  H  H85  1  0.30757000  0.04822000  0.69244000  1
  H  H86  1  0.30757000  0.04822000  0.30757000  1
  H  H87  1  0.69245000  0.95179000  0.69244000  1
  H  H88  1  0.19123000  0.80878000  0.95180000  1
  H  H89  1  0.80878000  0.19122000  0.04821000  1
  H  H90  1  0.19122000  0.19122000  0.04821000  1
  H  H91  1  0.80879000  0.80878000  0.95180000  1
  H  H92  1  0.80879000  0.19123000  0.95180000  1
  H  H93  1  0.19123000  0.80878000  0.04821000  1
  H  H94  1  0.80878000  0.80878000  0.04821000  1
  H  H95  1  0.19123000  0.19123000  0.95180000  1
  H  H96  1  0.30757000  0.69244000  0.04821000  1
  H  H97  1  0.69244000  0.30757000  0.95179000  1
  H  H98  1  0.69244000  0.69244000  0.95179000  1
  H  H99  1  0.30757000  0.30757000  0.04821000  1
  H  H100  1  0.69244000  0.30757000  0.04821000  1
  H  H101  1  0.30757000  0.69244000  0.95179000  1
  H  H102  1  0.30757000  0.30757000  0.95179000  1
  H  H103  1  0.69244000  0.69244000  0.04822000  1
  H  H104  1  0.19123000  0.95180000  0.19122000  1
  H  H105  1  0.80879000  0.04821000  0.80878000  1
  H  H106  1  0.19123000  0.04821000  0.80878000  1
  H  H107  1  0.80878000  0.95180000  0.19122000  1
  H  H108  1  0.80879000  0.95180000  0.80878000  1
  H  H109  1  0.19123000  0.04821000  0.19122000  1
  H  H110  1  0.80878000  0.04821000  0.19122000  1
  H  H111  1  0.19123000  0.95180000  0.80878000  1
  H  H112  1  0.95180000  0.19123000  0.80878000  1
  H  H113  1  0.04821000  0.80878000  0.19122000  1
  H  H114  1  0.04821000  0.19123000  0.19122000  1
  H  H115  1  0.95180000  0.80878000  0.80878000  1
  H  H116  1  0.95180000  0.80878000  0.19122000  1
  H  H117  1  0.04821000  0.19123000  0.80878000  1
  H  H118  1  0.04821000  0.80878000  0.80878000  1
  H  H119  1  0.95180000  0.19122000  0.19122000  1
  H  H120  1  0.95179000  0.30757000  0.30757000  1
  H  H121  1  0.04822000  0.69244000  0.69244000  1
  H  H122  1  0.04822000  0.69244000  0.30757000  1
  H  H123  1  0.95180000  0.30757000  0.69244000  1
  H  H124  1  0.95180000  0.69244000  0.69244000  1
  H  H125  1  0.04822000  0.30757000  0.30757000  1
  H  H126  1  0.04822000  0.30757000  0.69244000  1
  H  H127  1  0.95179000  0.69244000  0.30757000  1
  C  C128  1  0.24953000  0.38866000  0.24953000  1
  C  C129  1  0.75048000  0.61135000  0.75048000  1
  C  C130  1  0.75048000  0.61134000  0.24953000  1
  C  C131  1  0.24953000  0.38866000  0.75048000  1
  C  C132  1  0.75048000  0.38866000  0.75048000  1
  C  C133  1  0.24953000  0.61135000  0.24953000  1
  C  C134  1  0.24953000  0.61135000  0.75048000  1
  C  C135  1  0.75048000  0.38866000  0.24953000  1
  C  C136  1  0.24953000  0.24953000  0.38866000  1
  C  C137  1  0.75048000  0.75048000  0.61135000  1
  C  C138  1  0.24953000  0.75048000  0.61135000  1
  C  C139  1  0.75048000  0.24953000  0.38866000  1
  C  C140  1  0.75048000  0.75048000  0.38866000  1
  C  C141  1  0.24953000  0.24953000  0.61135000  1
  C  C142  1  0.75048000  0.24953000  0.61135000  1
  C  C143  1  0.24953000  0.75048000  0.38866000  1
  C  C144  1  0.38866000  0.24953000  0.24953000  1
  C  C145  1  0.61135000  0.75048000  0.75048000  1
  C  C146  1  0.61135000  0.24953000  0.75048000  1
  C  C147  1  0.38866000  0.75048000  0.24953000  1
  C  C148  1  0.38867000  0.75048000  0.75048000  1
  C  C149  1  0.61135000  0.24953000  0.24953000  1
  C  C150  1  0.61135000  0.75048000  0.24953000  1
  C  C151  1  0.38866000  0.24953000  0.75048000  1
  C  C152  1  0.24939000  0.88930000  0.75062000  1
  C  C153  1  0.75062000  0.11071000  0.24939000  1
  C  C154  1  0.75062000  0.11071000  0.75062000  1
  C  C155  1  0.24939000  0.88930000  0.24939000  1
  C  C156  1  0.75062000  0.88930000  0.24939000  1
  C  C157  1  0.24939000  0.11071000  0.75062000  1
  C  C158  1  0.24939000  0.11070000  0.24939000  1
  C  C159  1  0.75062000  0.88930000  0.75062000  1
  C  C160  1  0.24939000  0.75062000  0.88930000  1
  C  C161  1  0.75062000  0.24939000  0.11070000  1
  C  C162  1  0.24939000  0.24939000  0.11070000  1
  C  C163  1  0.75062000  0.75062000  0.88930000  1
  C  C164  1  0.75062000  0.24939000  0.88930000  1
  C  C165  1  0.24939000  0.75062000  0.11070000  1
  C  C166  1  0.75062000  0.75062000  0.11071000  1
  C  C167  1  0.24939000  0.24939000  0.88930000  1
  C  C168  1  0.88931000  0.24939000  0.75062000  1
  C  C169  1  0.11071000  0.75062000  0.24939000  1
  C  C170  1  0.11071000  0.24939000  0.24939000  1
  C  C171  1  0.88931000  0.75062000  0.75062000  1
  C  C172  1  0.88930000  0.75062000  0.24939000  1
  C  C173  1  0.11071000  0.24939000  0.75062000  1
  C  C174  1  0.11071000  0.75062000  0.75062000  1
  C  C175  1  0.88930000  0.24939000  0.24939000  1
  C  C176  1  0.24977000  0.44615000  0.24977000  1
  C  C177  1  0.75024000  0.55386000  0.75024000  1
  C  C178  1  0.75024000  0.55386000  0.24977000  1
  C  C179  1  0.24977000  0.44615000  0.75024000  1
  C  C180  1  0.75024000  0.44615000  0.75024000  1
  C  C181  1  0.24977000  0.55386000  0.24976000  1
  C  C182  1  0.24977000  0.55386000  0.75024000  1
  C  C183  1  0.75024000  0.44615000  0.24977000  1
  C  C184  1  0.24977000  0.24977000  0.44615000  1
  C  C185  1  0.75024000  0.75024000  0.55386000  1
  C  C186  1  0.24977000  0.75024000  0.55386000  1
  C  C187  1  0.75024000  0.24977000  0.44615000  1
  C  C188  1  0.75024000  0.75024000  0.44615000  1
  C  C189  1  0.24977000  0.24977000  0.55386000  1
  C  C190  1  0.75024000  0.24977000  0.55386000  1
  C  C191  1  0.24977000  0.75024000  0.44615000  1
  C  C192  1  0.44615000  0.24977000  0.24977000  1
  C  C193  1  0.55386000  0.75024000  0.75024000  1
  C  C194  1  0.55386000  0.24977000  0.75024000  1
  C  C195  1  0.44615000  0.75024000  0.24977000  1
  C  C196  1  0.44615000  0.75024000  0.75024000  1
  C  C197  1  0.55386000  0.24977000  0.24977000  1
  C  C198  1  0.55386000  0.75024000  0.24977000  1
  C  C199  1  0.44615000  0.24977000  0.75024000  1
  C  C200  1  0.24940000  0.94650000  0.75061000  1
  C  C201  1  0.75061000  0.05351000  0.24939000  1
  C  C202  1  0.75061000  0.05351000  0.75061000  1
  C  C203  1  0.24940000  0.94650000  0.24940000  1
  C  C204  1  0.75061000  0.94650000  0.24940000  1
  C  C205  1  0.24940000  0.05351000  0.75061000  1
  C  C206  1  0.24940000  0.05351000  0.24940000  1
  C  C207  1  0.75061000  0.94650000  0.75061000  1
  C  C208  1  0.24940000  0.75061000  0.94650000  1
  C  C209  1  0.75061000  0.24940000  0.05351000  1
  C  C210  1  0.24940000  0.24940000  0.05351000  1
  C  C211  1  0.75061000  0.75061000  0.94650000  1
  C  C212  1  0.75061000  0.24940000  0.94650000  1
  C  C213  1  0.24940000  0.75061000  0.05351000  1
  C  C214  1  0.75061000  0.75061000  0.05351000  1
  C  C215  1  0.24940000  0.24940000  0.94650000  1
  C  C216  1  0.94650000  0.24940000  0.75061000  1
  C  C217  1  0.05351000  0.75061000  0.24940000  1
  C  C218  1  0.05351000  0.24940000  0.24939000  1
  C  C219  1  0.94650000  0.75061000  0.75061000  1
  C  C220  1  0.94650000  0.75061000  0.24940000  1
  C  C221  1  0.05351000  0.24940000  0.75061000  1
  C  C222  1  0.05351000  0.75061000  0.75061000  1
  C  C223  1  0.94650000  0.24940000  0.24940000  1
  C  C224  1  0.28274000  0.47330000  0.21696000  1
  C  C225  1  0.71726000  0.52671000  0.78304000  1
  C  C226  1  0.71727000  0.52671000  0.21696000  1
  C  C227  1  0.28275000  0.47330000  0.78305000  1
  C  C228  1  0.71727000  0.47330000  0.78305000  1
  C  C229  1  0.28275000  0.52671000  0.21696000  1
  C  C230  1  0.28275000  0.52671000  0.78304000  1
  C  C231  1  0.71726000  0.47330000  0.21696000  1
  C  C232  1  0.21696000  0.28274000  0.47330000  1
  C  C233  1  0.78305000  0.71726000  0.52671000  1
  C  C234  1  0.21696000  0.71726000  0.52671000  1
  C  C235  1  0.78305000  0.28275000  0.47330000  1
  C  C236  1  0.78305000  0.71726000  0.47330000  1
  C  C237  1  0.21697000  0.28275000  0.52671000  1
  C  C238  1  0.78305000  0.28275000  0.52671000  1
  C  C239  1  0.21697000  0.71726000  0.47330000  1
  C  C240  1  0.47330000  0.21696000  0.28274000  1
  C  C241  1  0.52671000  0.78305000  0.71726000  1
  C  C242  1  0.52671000  0.21696000  0.71726000  1
  C  C243  1  0.47330000  0.78305000  0.28274000  1
  C  C244  1  0.47330000  0.78304000  0.71726000  1
  C  C245  1  0.52671000  0.21696000  0.28275000  1
  C  C246  1  0.52671000  0.78304000  0.28275000  1
  C  C247  1  0.47330000  0.21697000  0.71726000  1
  C  C248  1  0.47330000  0.28275000  0.78304000  1
  C  C249  1  0.52671000  0.71726000  0.21696000  1
  C  C250  1  0.52671000  0.71727000  0.78305000  1
  C  C251  1  0.47330000  0.28274000  0.21696000  1
  C  C252  1  0.47330000  0.71726000  0.21696000  1
  C  C253  1  0.52671000  0.28275000  0.78305000  1
  C  C254  1  0.52671000  0.28275000  0.21696000  1
  C  C255  1  0.47330000  0.71726000  0.78304000  1
  C  C256  1  0.28275000  0.21696000  0.52671000  1
  C  C257  1  0.71726000  0.78305000  0.47330000  1
  C  C258  1  0.71726000  0.21696000  0.47330000  1
  C  C259  1  0.28275000  0.78305000  0.52671000  1
  C  C260  1  0.71726000  0.78305000  0.52671000  1
  C  C261  1  0.28274000  0.21696000  0.47330000  1
  C  C262  1  0.28275000  0.78305000  0.47330000  1
  C  C263  1  0.71726000  0.21696000  0.52671000  1
  C  C264  1  0.21696000  0.47330000  0.71726000  1
  C  C265  1  0.78305000  0.52671000  0.28274000  1
  C  C266  1  0.21697000  0.52671000  0.28275000  1
  C  C267  1  0.78305000  0.47330000  0.71726000  1
  C  C268  1  0.78305000  0.47330000  0.28275000  1
  C  C269  1  0.21697000  0.52671000  0.71726000  1
  C  C270  1  0.78305000  0.52671000  0.71726000  1
  C  C271  1  0.21696000  0.47330000  0.28274000  1
  C  C272  1  0.28237000  0.97335000  0.71765000  1
  C  C273  1  0.71764000  0.02666000  0.28237000  1
  C  C274  1  0.71765000  0.02666000  0.71764000  1
  C  C275  1  0.28236000  0.97335000  0.28237000  1
  C  C276  1  0.71764000  0.97335000  0.28236000  1
  C  C277  1  0.28236000  0.02666000  0.71764000  1
  C  C278  1  0.28237000  0.02666000  0.28236000  1
  C  C279  1  0.71764000  0.97335000  0.71764000  1
  C  C280  1  0.21643000  0.78359000  0.97335000  1
  C  C281  1  0.78358000  0.21643000  0.02665000  1
  C  C282  1  0.21643000  0.21643000  0.02665000  1
  C  C283  1  0.78359000  0.78358000  0.97335000  1
  C  C284  1  0.78358000  0.21643000  0.97335000  1
  C  C285  1  0.21642000  0.78358000  0.02665000  1
  C  C286  1  0.78358000  0.78358000  0.02665000  1
  C  C287  1  0.21643000  0.21643000  0.97335000  1
  C  C288  1  0.28236000  0.71764000  0.02666000  1
  C  C289  1  0.71765000  0.28237000  0.97335000  1
  C  C290  1  0.71765000  0.71764000  0.97335000  1
  C  C291  1  0.28237000  0.28236000  0.02666000  1
  C  C292  1  0.71764000  0.28236000  0.02666000  1
  C  C293  1  0.28237000  0.71765000  0.97335000  1
  C  C294  1  0.28237000  0.28237000  0.97335000  1
  C  C295  1  0.71764000  0.71764000  0.02666000  1
  C  C296  1  0.21643000  0.97335000  0.21643000  1
  C  C297  1  0.78359000  0.02666000  0.78358000  1
  C  C298  1  0.21643000  0.02666000  0.78358000  1
  C  C299  1  0.78358000  0.97335000  0.21642000  1
  C  C300  1  0.78358000  0.97335000  0.78358000  1
  C  C301  1  0.21643000  0.02666000  0.21642000  1
  C  C302  1  0.78358000  0.02666000  0.21643000  1
  C  C303  1  0.21643000  0.97335000  0.78358000  1
  C  C304  1  0.97336000  0.21643000  0.78358000  1
  C  C305  1  0.02666000  0.78358000  0.21643000  1
  C  C306  1  0.02666000  0.21642000  0.21643000  1
  C  C307  1  0.97336000  0.78358000  0.78358000  1
  C  C308  1  0.97335000  0.78358000  0.21642000  1
  C  C309  1  0.02666000  0.21643000  0.78358000  1
  C  C310  1  0.02666000  0.78358000  0.78358000  1
  C  C311  1  0.97335000  0.21643000  0.21642000  1
  C  C312  1  0.97335000  0.28237000  0.28236000  1
  C  C313  1  0.02666000  0.71765000  0.71764000  1
  C  C314  1  0.02666000  0.71764000  0.28237000  1
  C  C315  1  0.97335000  0.28237000  0.71765000  1
  C  C316  1  0.97335000  0.71764000  0.71764000  1
  C  C317  1  0.02666000  0.28236000  0.28237000  1
  C  C318  1  0.02666000  0.28236000  0.71764000  1
  C  C319  1  0.97335000  0.71764000  0.28236000  1
  O  O320  1  0.24943000  0.24943000  0.24943000  1
  O  O321  1  0.75058000  0.75058000  0.75058000  1
  O  O322  1  0.75058000  0.75058000  0.24943000  1
  O  O323  1  0.24943000  0.24943000  0.75058000  1
  O  O324  1  0.75058000  0.24943000  0.75058000  1
  O  O325  1  0.24943000  0.75058000  0.24943000  1
  O  O326  1  0.24943000  0.75058000  0.75058000  1
  O  O327  1  0.75058000  0.24943000  0.24943000  1
  O  O328  1  0.28035000  0.36646000  0.21846000  1
  O  O329  1  0.71966000  0.63355000  0.78155000  1
  O  O330  1  0.71966000  0.63355000  0.21846000  1
  O  O331  1  0.28035000  0.36646000  0.78155000  1
  O  O332  1  0.71966000  0.36646000  0.78155000  1
  O  O333  1  0.28035000  0.63355000  0.21846000  1
  O  O334  1  0.28036000  0.63355000  0.78155000  1
  O  O335  1  0.71966000  0.36646000  0.21846000  1
  O  O336  1  0.21846000  0.28035000  0.36646000  1
  O  O337  1  0.78155000  0.71966000  0.63355000  1
  O  O338  1  0.21846000  0.71966000  0.63355000  1
  O  O339  1  0.78155000  0.28035000  0.36646000  1
  O  O340  1  0.78155000  0.71966000  0.36646000  1
  O  O341  1  0.21846000  0.28035000  0.63355000  1
  O  O342  1  0.78155000  0.28035000  0.63355000  1
  O  O343  1  0.21846000  0.71965000  0.36646000  1
  O  O344  1  0.36646000  0.21846000  0.28035000  1
  O  O345  1  0.63355000  0.78155000  0.71966000  1
  O  O346  1  0.63355000  0.21846000  0.71966000  1
  O  O347  1  0.36646000  0.78155000  0.28035000  1
  O  O348  1  0.36646000  0.78155000  0.71965000  1
  O  O349  1  0.63355000  0.21846000  0.28035000  1
  O  O350  1  0.63355000  0.78155000  0.28035000  1
  O  O351  1  0.36646000  0.21846000  0.71965000  1
  O  O352  1  0.36646000  0.28035000  0.78155000  1
  O  O353  1  0.63355000  0.71965000  0.21846000  1
  O  O354  1  0.63355000  0.71966000  0.78155000  1
  O  O355  1  0.36646000  0.28035000  0.21846000  1
  O  O356  1  0.36646000  0.71966000  0.21846000  1
  O  O357  1  0.63355000  0.28035000  0.78155000  1
  O  O358  1  0.63355000  0.28035000  0.21846000  1
  O  O359  1  0.36646000  0.71966000  0.78155000  1
  O  O360  1  0.28035000  0.21846000  0.63355000  1
  O  O361  1  0.71966000  0.78155000  0.36646000  1
  O  O362  1  0.71966000  0.21846000  0.36646000  1
  O  O363  1  0.28036000  0.78155000  0.63355000  1
  O  O364  1  0.71966000  0.78155000  0.63355000  1
  O  O365  1  0.28035000  0.21846000  0.36646000  1
  O  O366  1  0.28035000  0.78155000  0.36646000  1
  O  O367  1  0.71966000  0.21846000  0.63355000  1
  O  O368  1  0.21846000  0.36646000  0.71965000  1
  O  O369  1  0.78155000  0.63355000  0.28035000  1
  O  O370  1  0.21846000  0.63355000  0.28035000  1
  O  O371  1  0.78155000  0.36646000  0.71966000  1
  O  O372  1  0.78155000  0.36646000  0.28035000  1
  O  O373  1  0.21846000  0.63355000  0.71966000  1
  O  O374  1  0.78155000  0.63355000  0.71965000  1
  O  O375  1  0.21846000  0.36646000  0.28035000  1
  O  O376  1  0.28037000  0.86727000  0.71964000  1
  O  O377  1  0.71964000  0.13274000  0.28037000  1
  O  O378  1  0.71964000  0.13274000  0.71964000  1
  O  O379  1  0.28037000  0.86727000  0.28037000  1
  O  O380  1  0.71964000  0.86727000  0.28037000  1
  O  O381  1  0.28037000  0.13274000  0.71964000  1
  O  O382  1  0.28037000  0.13274000  0.28037000  1
  O  O383  1  0.71964000  0.86727000  0.71964000  1
  O  O384  1  0.21840000  0.78162000  0.86733000  1
  O  O385  1  0.78162000  0.21839000  0.13268000  1
  O  O386  1  0.21839000  0.21839000  0.13268000  1
  O  O387  1  0.78162000  0.78162000  0.86733000  1
  O  O388  1  0.78162000  0.21839000  0.86733000  1
  O  O389  1  0.21839000  0.78161000  0.13268000  1
  O  O390  1  0.78162000  0.78162000  0.13268000  1
  O  O391  1  0.21839000  0.21839000  0.86733000  1
  O  O392  1  0.28037000  0.71964000  0.13273000  1
  O  O393  1  0.71964000  0.28037000  0.86727000  1
  O  O394  1  0.71964000  0.71964000  0.86727000  1
  O  O395  1  0.28037000  0.28037000  0.13273000  1
  O  O396  1  0.71964000  0.28037000  0.13273000  1
  O  O397  1  0.28037000  0.71964000  0.86727000  1
  O  O398  1  0.28037000  0.28037000  0.86727000  1
  O  O399  1  0.71964000  0.71964000  0.13273000  1
  O  O400  1  0.21839000  0.86733000  0.21839000  1
  O  O401  1  0.78162000  0.13268000  0.78162000  1
  O  O402  1  0.21839000  0.13268000  0.78162000  1
  O  O403  1  0.78162000  0.86733000  0.21839000  1
  O  O404  1  0.78162000  0.86733000  0.78162000  1
  O  O405  1  0.21839000  0.13268000  0.21839000  1
  O  O406  1  0.78162000  0.13268000  0.21839000  1
  O  O407  1  0.21840000  0.86733000  0.78162000  1
  O  O408  1  0.86733000  0.21839000  0.78162000  1
  O  O409  1  0.13268000  0.78162000  0.21839000  1
  O  O410  1  0.13268000  0.21839000  0.21839000  1
  O  O411  1  0.86733000  0.78162000  0.78162000  1
  O  O412  1  0.86733000  0.78162000  0.21839000  1
  O  O413  1  0.13268000  0.21839000  0.78162000  1
  O  O414  1  0.13268000  0.78162000  0.78162000  1
  O  O415  1  0.86733000  0.21839000  0.21839000  1
  O  O416  1  0.86727000  0.28037000  0.28037000  1
  O  O417  1  0.13274000  0.71964000  0.71964000  1
  O  O418  1  0.13274000  0.71964000  0.28037000  1
  O  O419  1  0.86728000  0.28037000  0.71964000  1
  O  O420  1  0.86728000  0.71964000  0.71964000  1
  O  O421  1  0.13274000  0.28037000  0.28037000  1
  O  O422  1  0.13274000  0.28037000  0.71964000  1
  O  O423  1  0.86727000  0.71964000  0.28037000  1
