data_image0
_chemical_formula_structural       Zr6H3NH2C24O18H2
_chemical_formula_sum              "Zr6 H7 N1 C24 O18"
_cell_length_a       6.7192
_cell_length_b       15.2402
_cell_length_c       15.2402
_cell_angle_alpha    62.1212
_cell_angle_beta     81.549
_cell_angle_gamma    98.451

_space_group_name_H-M_alt    "P 1"
_space_group_IT_number       1

loop_
  _space_group_symop_operation_xyz
  'x, y, z'

loop_
  _atom_site_type_symbol
  _atom_site_label
  _atom_site_symmetry_multiplicity
  _atom_site_fract_x
  _atom_site_fract_y
  _atom_site_fract_z
  _atom_site_occupancy
  Zr  Zr1       1.0  0.30199  0.26484  0.31420  1.0000
  Zr  Zr2       1.0  0.61619  0.31420  0.42096  1.0000
  Zr  Zr3       1.0  0.03715  0.42096  0.26484  1.0000
  Zr  Zr4       1.0  0.69801  0.73516  0.68580  1.0000
  Zr  Zr5       1.0  0.38381  0.68580  0.57904  1.0000
  Zr  Zr6       1.0  0.96285  0.57904  0.73516  1.0000
  H   H1        1.0  0.30210  0.46880  0.54780  1.0000
  H   H2        1.0  0.84990  0.54780  0.98340  1.0000
  H   H3        1.0  0.83330  0.98340  0.46880  1.0000
  N   N1        1.0  0.69790  0.53120  0.45220  1.0000
  H   H4        1.0  0.15010  0.45220  0.01660  1.0000
  H   H5        1.0  0.16670  0.01660  0.53120  1.0000
  C   C1        1.0  0.23990  0.38720  0.43740  1.0000
  C   C2        1.0  0.11350  0.44700  0.46570  1.0000
  C   C3        1.0  0.92880  0.46700  0.43380  1.0000
  C   C4        1.0  0.17900  0.48130  0.52910  1.0000
  C   C5        1.0  0.67730  0.43740  0.17540  1.0000
  C   C6        1.0  0.57920  0.46570  0.08730  1.0000
  C   C7        1.0  0.36260  0.43380  0.09920  1.0000
  C   C8        1.0  0.70810  0.52910  0.98960  1.0000
  C   C9        1.0  0.85270  0.17540  0.38720  1.0000
  C   C10       1.0  0.66650  0.08730  0.44700  1.0000
  C   C11       1.0  0.46180  0.09920  0.46700  1.0000
  C   C12       1.0  0.69770  0.98960  0.48130  1.0000
  C   C13       1.0  0.76010  0.61280  0.56260  1.0000
  C   C14       1.0  0.88650  0.55300  0.53430  1.0000
  C   C15       1.0  0.07120  0.53300  0.56620  1.0000
  C   C16       1.0  0.82100  0.51870  0.47090  1.0000
  C   C17       1.0  0.32270  0.56260  0.82460  1.0000
  C   C18       1.0  0.42080  0.53430  0.91270  1.0000
  C   C19       1.0  0.63740  0.56620  0.90080  1.0000
  C   C20       1.0  0.29190  0.47090  0.01040  1.0000
  C   C21       1.0  0.14730  0.82460  0.61280  1.0000
  C   C22       1.0  0.33350  0.91270  0.55300  1.0000
  C   C23       1.0  0.53820  0.90080  0.53300  1.0000
  C   C24       1.0  0.30230  0.01040  0.51870  1.0000
  O   O1        1.0  0.18650  0.35420  0.37950  1.0000
  O   O2        1.0  0.39580  0.36770  0.47460  1.0000
  O   O3        1.0  0.85290  0.44090  0.36990  1.0000
  O   O4        1.0  0.56600  0.37950  0.26630  1.0000
  O   O5        1.0  0.87040  0.47460  0.15770  1.0000
  O   O6        1.0  0.22280  0.36990  0.18920  1.0000
  O   O7        1.0  0.83230  0.26630  0.35420  1.0000
  O   O8        1.0  0.02810  0.15770  0.36770  1.0000
  O   O9        1.0  0.41200  0.18920  0.44090  1.0000
  O   O10       1.0  0.81350  0.64580  0.62050  1.0000
  O   O11       1.0  0.60420  0.63230  0.52540  1.0000
  O   O12       1.0  0.14710  0.55910  0.63010  1.0000
  O   O13       1.0  0.43400  0.62050  0.73370  1.0000
  O   O14       1.0  0.12960  0.52540  0.84230  1.0000
  O   O15       1.0  0.77720  0.63010  0.81080  1.0000
  O   O16       1.0  0.16770  0.73370  0.64580  1.0000
  O   O17       1.0  0.97190  0.84230  0.63230  1.0000
  O   O18       1.0  0.58800  0.81080  0.55910  1.0000
  H   H6        1.0  0.59546  0.46364  0.47667  1.0000
  H   H7        1.0  0.72726  0.57432  0.37482  1.0000
