# generated using pymatgen
data_Mn2H4C6O7
_symmetry_space_group_name_H-M   'P 1'
_cell_length_a   12.69110000
_cell_length_b   20.32860000
_cell_length_c   22.23410000
_cell_angle_alpha   90.00000000
_cell_angle_beta   93.12800000
_cell_angle_gamma   90.00000000
_symmetry_Int_Tables_number   1
_chemical_formula_structural   Mn2H4C6O7
_chemical_formula_sum   'Mn32 H64 C96 O112'
_cell_volume   5727.68022570
_cell_formula_units_Z   16
loop_
 _symmetry_equiv_pos_site_id
 _symmetry_equiv_pos_as_xyz
  1  'x, y, z'
loop_
 _atom_site_type_symbol
 _atom_site_label
 _atom_site_symmetry_multiplicity
 _atom_site_fract_x
 _atom_site_fract_y
 _atom_site_fract_z
 _atom_site_occupancy
  Mn  Mn0  1  0.42679000  0.69752000  0.27836000  1
  Mn  Mn1  1  0.07321000  0.19752000  0.22164000  1
  Mn  Mn2  1  0.57321000  0.30248000  0.72164000  1
  Mn  Mn3  1  0.92679000  0.80248000  0.77836000  1
  Mn  Mn4  1  0.16463000  0.69923000  0.24747000  1
  Mn  Mn5  1  0.33537000  0.19923000  0.25253000  1
  Mn  Mn6  1  0.83537000  0.30077000  0.75253000  1
  Mn  Mn7  1  0.66463000  0.80077000  0.74747000  1
  Mn  Mn8  1  0.27858000  0.58611000  0.33650000  1
  Mn  Mn9  1  0.22142000  0.08611000  0.16350000  1
  Mn  Mn10  1  0.72142000  0.41389000  0.66350000  1
  Mn  Mn11  1  0.77858000  0.91389000  0.83650000  1
  Mn  Mn12  1  0.31075000  0.59091000  0.18491000  1
  Mn  Mn13  1  0.18925000  0.09091000  0.31509000  1
  Mn  Mn14  1  0.68925000  0.40909000  0.81509000  1
  Mn  Mn15  1  0.81075000  0.90909000  0.68491000  1
  Mn  Mn16  1  0.21115000  0.53606000  0.53772000  1
  Mn  Mn17  1  0.28885000  0.03606000  0.96228000  1
  Mn  Mn18  1  0.78885000  0.46394000  0.46228000  1
  Mn  Mn19  1  0.71115000  0.96394000  0.03772000  1
  Mn  Mn20  1  0.70078000  0.56080000  0.02692000  1
  Mn  Mn21  1  0.79922000  0.06080000  0.47308000  1
  Mn  Mn22  1  0.29922000  0.43920000  0.97308000  1
  Mn  Mn23  1  0.20078000  0.93920000  0.52692000  1
  Mn  Mn24  1  0.79564000  0.81537000  0.26809000  1
  Mn  Mn25  1  0.70436000  0.31537000  0.23191000  1
  Mn  Mn26  1  0.20436000  0.18463000  0.73191000  1
  Mn  Mn27  1  0.29564000  0.68463000  0.76809000  1
  Mn  Mn28  1  0.54321000  0.73976000  0.51283000  1.0
  Mn  Mn29  1  0.95679000  0.23976000  0.98717000  1.0
  Mn  Mn30  1  0.45679000  0.26024000  0.48717000  1.0
  Mn  Mn31  1  0.04321000  0.76024000  0.01283000  1.0
  H  H32  1  0.39150000  0.46450000  0.25810000  1
  H  H33  1  0.10850000  0.96450000  0.24190000  1
  H  H34  1  0.60850000  0.53550000  0.74190000  1
  H  H35  1  0.89150000  0.03550000  0.75810000  1
  H  H36  1  0.51130000  0.44490000  0.27620000  1
  H  H37  1  0.98870000  0.94490000  0.22380000  1
  H  H38  1  0.48870000  0.55510000  0.72380000  1
  H  H39  1  0.01130000  0.05510000  0.77620000  1
  H  H40  1  0.54370000  0.57410000  0.36080000  1
  H  H41  1  0.95630000  0.07410000  0.13920000  1
  H  H42  1  0.45630000  0.42590000  0.63920000  1
  H  H43  1  0.04370000  0.92590000  0.86080000  1
  H  H44  1  0.62590000  0.53020000  0.32650000  1
  H  H45  1  0.87410000  0.03020000  0.17350000  1
  H  H46  1  0.37410000  0.46980000  0.67350000  1
  H  H47  1  0.12590000  0.96980000  0.82650000  1
  H  H48  1  0.18560000  0.46330000  0.25880000  1
  H  H49  1  0.31440000  0.96330000  0.24120000  1
  H  H50  1  0.81440000  0.53670000  0.74120000  1
  H  H51  1  0.68560000  0.03670000  0.75880000  1
  H  H52  1  0.06630000  0.44890000  0.23490000  1
  H  H53  1  0.43370000  0.94890000  0.26510000  1
  H  H54  1  0.93370000  0.55110000  0.76510000  1
  H  H55  1  0.56630000  0.05110000  0.73490000  1
  H  H56  1  0.05010000  0.58440000  0.15920000  1
  H  H57  1  0.44990000  0.08440000  0.34080000  1
  H  H58  1  0.94990000  0.41560000  0.84080000  1
  H  H59  1  0.55010000  0.91560000  0.65920000  1
  H  H60  1  0.96200000  0.54020000  0.18820000  1
  H  H61  1  0.53800000  0.04020000  0.31180000  1
  H  H62  1  0.03800000  0.45980000  0.81180000  1
  H  H63  1  0.46200000  0.95980000  0.68820000  1
  H  H64  1  0.39090000  0.75160000  0.07320000  1
  H  H65  1  0.10910000  0.25160000  0.42680000  1
  H  H66  1  0.60910000  0.24840000  0.92680000  1
  H  H67  1  0.89090000  0.74840000  0.57320000  1
  H  H68  1  0.45250000  0.70570000  0.12160000  1
  H  H69  1  0.04750000  0.20570000  0.37840000  1
  H  H70  1  0.54750000  0.29430000  0.87840000  1
  H  H71  1  0.95250000  0.79430000  0.62160000  1
  H  H72  1  0.32890000  0.84170000  0.13570000  1
  H  H73  1  0.17110000  0.34170000  0.36430000  1
  H  H74  1  0.67110000  0.15830000  0.86430000  1
  H  H75  1  0.82890000  0.65830000  0.63570000  1
  H  H76  1  0.29130000  0.82510000  0.20160000  1
  H  H77  1  0.20870000  0.32510000  0.29840000  1
  H  H78  1  0.70870000  0.17490000  0.79840000  1
  H  H79  1  0.79130000  0.67490000  0.70160000  1
  H  H80  1  0.18790000  0.74800000  0.45030000  1
  H  H81  1  0.31210000  0.24800000  0.04970000  1
  H  H82  1  0.81210000  0.25200000  0.54970000  1
  H  H83  1  0.68790000  0.75200000  0.95030000  1
  H  H84  1  0.12780000  0.70480000  0.39910000  1
  H  H85  1  0.37220000  0.20480000  0.10090000  1
  H  H86  1  0.87220000  0.29520000  0.60090000  1
  H  H87  1  0.62780000  0.79520000  0.89910000  1
  H  H88  1  0.26170000  0.83790000  0.39130000  1
  H  H89  1  0.23830000  0.33790000  0.10870000  1
  H  H90  1  0.73830000  0.16210000  0.60870000  1
  H  H91  1  0.76170000  0.66210000  0.89130000  1
  H  H92  1  0.29880000  0.82250000  0.32520000  1
  H  H93  1  0.20120000  0.32250000  0.17480000  1
  H  H94  1  0.70120000  0.17750000  0.67480000  1
  H  H95  1  0.79880000  0.67750000  0.82520000  1
  C  C96  1  0.48830000  0.54800000  0.27470000  1
  C  C97  1  0.01170000  0.04800000  0.22530000  1
  C  C98  1  0.51170000  0.45200000  0.72530000  1
  C  C99  1  0.98830000  0.95200000  0.77470000  1
  C  C100  1  0.53080000  0.54670000  0.21080000  1
  C  C101  1  0.96920000  0.04670000  0.28920000  1
  C  C102  1  0.46920000  0.45330000  0.78920000  1
  C  C103  1  0.03080000  0.95330000  0.71080000  1
  C  C104  1  0.45320000  0.47500000  0.28560000  1
  C  C105  1  0.04680000  0.97500000  0.21440000  1
  C  C106  1  0.54680000  0.52500000  0.71440000  1
  C  C107  1  0.95320000  0.02500000  0.78560000  1
  C  C108  1  0.42470000  0.46430000  0.34980000  1
  C  C109  1  0.07530000  0.96430000  0.15020000  1
  C  C110  1  0.57530000  0.53570000  0.65020000  1
  C  C111  1  0.92470000  0.03570000  0.84980000  1
  C  C112  1  0.57560000  0.56730000  0.32160000  1
  C  C113  1  0.92440000  0.06730000  0.17840000  1
  C  C114  1  0.42440000  0.43270000  0.67840000  1
  C  C115  1  0.07560000  0.93270000  0.82160000  1
  C  C116  1  0.63580000  0.62850000  0.30610000  1
  C  C117  1  0.86420000  0.12850000  0.19390000  1
  C  C118  1  0.36420000  0.37150000  0.69390000  1
  C  C119  1  0.13580000  0.87150000  0.80610000  1
  C  C120  1  0.09720000  0.55030000  0.24470000  1
  C  C121  1  0.40280000  0.05030000  0.25530000  1
  C  C122  1  0.90280000  0.44970000  0.75530000  1
  C  C123  1  0.59720000  0.94970000  0.74470000  1
  C  C124  1  0.05500000  0.54690000  0.30860000  1
  C  C125  1  0.44500000  0.04690000  0.19140000  1
  C  C126  1  0.94500000  0.45310000  0.69140000  1
  C  C127  1  0.55500000  0.95310000  0.80860000  1
  C  C128  1  0.12780000  0.47800000  0.23010000  1
  C  C129  1  0.37220000  0.97800000  0.26990000  1
  C  C130  1  0.87220000  0.52200000  0.76990000  1
  C  C131  1  0.62780000  0.02200000  0.73010000  1
  C  C132  1  0.16310000  0.47310000  0.16660000  1
  C  C133  1  0.33690000  0.97310000  0.33340000  1
  C  C134  1  0.83690000  0.52690000  0.83340000  1
  C  C135  1  0.66310000  0.02690000  0.66660000  1
  C  C136  1  0.01440000  0.57550000  0.19690000  1
  C  C137  1  0.48560000  0.07550000  0.30310000  1
  C  C138  1  0.98560000  0.42450000  0.80310000  1
  C  C139  1  0.51440000  0.92450000  0.69690000  1
  C  C140  1  0.95810000  0.63540000  0.21390000  1
  C  C141  1  0.54190000  0.13540000  0.28610000  1
  C  C142  1  0.04190000  0.36460000  0.78610000  1
  C  C143  1  0.45810000  0.86460000  0.71390000  1
  C  C144  1  0.31350000  0.74000000  0.15000000  1
  C  C145  1  0.18650000  0.24000000  0.35000000  1
  C  C146  1  0.68650000  0.26000000  0.85000000  1
  C  C147  1  0.81350000  0.76000000  0.65000000  1
  C  C148  1  0.19780000  0.74630000  0.12430000  1
  C  C149  1  0.30220000  0.24630000  0.37570000  1
  C  C150  1  0.80220000  0.25370000  0.87570000  1
  C  C151  1  0.69780000  0.75370000  0.62430000  1
  C  C152  1  0.38200000  0.71570000  0.10260000  1
  C  C153  1  0.11800000  0.21570000  0.39740000  1
  C  C154  1  0.61800000  0.28430000  0.89740000  1
  C  C155  1  0.88200000  0.78430000  0.60260000  1
  C  C156  1  0.34290000  0.65670000  0.06950000  1
  C  C157  1  0.15710000  0.15670000  0.43050000  1
  C  C158  1  0.65710000  0.34330000  0.93050000  1
  C  C159  1  0.84290000  0.84330000  0.56950000  1
  C  C160  1  0.33980000  0.81160000  0.17040000  1
  C  C161  1  0.16020000  0.31160000  0.32960000  1
  C  C162  1  0.66020000  0.18840000  0.82960000  1
  C  C163  1  0.83980000  0.68840000  0.67040000  1
  C  C164  1  0.45580000  0.81750000  0.19640000  1
  C  C165  1  0.04420000  0.31750000  0.30360000  1
  C  C166  1  0.54420000  0.18250000  0.80360000  1
  C  C167  1  0.95580000  0.68250000  0.69640000  1
  C  C168  1  0.27410000  0.73630000  0.37500000  1
  C  C169  1  0.22590000  0.23630000  0.12500000  1
  C  C170  1  0.72590000  0.26370000  0.62500000  1
  C  C171  1  0.77410000  0.76370000  0.87500000  1
  C  C172  1  0.38980000  0.73900000  0.40320000  1
  C  C173  1  0.11020000  0.23900000  0.09680000  1
  C  C174  1  0.61020000  0.26100000  0.59680000  1
  C  C175  1  0.88980000  0.76100000  0.90320000  1
  C  C176  1  0.19720000  0.71270000  0.42040000  1
  C  C177  1  0.30280000  0.21270000  0.07960000  1
  C  C178  1  0.80280000  0.28730000  0.57960000  1
  C  C179  1  0.69720000  0.78730000  0.92040000  1
  C  C180  1  0.23180000  0.65050000  0.45350000  1
  C  C181  1  0.26820000  0.15050000  0.04650000  1
  C  C182  1  0.76820000  0.34950000  0.54650000  1
  C  C183  1  0.73180000  0.84950000  0.95350000  1
  C  C184  1  0.24930000  0.80900000  0.35580000  1
  C  C185  1  0.25070000  0.30900000  0.14420000  1
  C  C186  1  0.75070000  0.19100000  0.64420000  1
  C  C187  1  0.74930000  0.69100000  0.85580000  1
  C  C188  1  0.13740000  0.81910000  0.33030000  1
  C  C189  1  0.36260000  0.31910000  0.16970000  1
  C  C190  1  0.86260000  0.18090000  0.66970000  1
  C  C191  1  0.63740000  0.68090000  0.83030000  1
  O  O192  1  0.40140000  0.59106000  0.27528000  1
  O  O193  1  0.09860000  0.09106000  0.22472000  1
  O  O194  1  0.59860000  0.40894000  0.72472000  1
  O  O195  1  0.90140000  0.90894000  0.77528000  1
  O  O196  1  0.47100000  0.56610000  0.16688000  1
  O  O197  1  0.02900000  0.06610000  0.33312000  1
  O  O198  1  0.52900000  0.43390000  0.83312000  1
  O  O199  1  0.97100000  0.93390000  0.66688000  1
  O  O200  1  0.62230000  0.52380000  0.20520000  1
  O  O201  1  0.87770000  0.02380000  0.29480000  1
  O  O202  1  0.37770000  0.47620000  0.79480000  1
  O  O203  1  0.12230000  0.97620000  0.70520000  1
  O  O204  1  0.34880000  0.49630000  0.36990000  1
  O  O205  1  0.15120000  0.99630000  0.13010000  1
  O  O206  1  0.65120000  0.50370000  0.63010000  1
  O  O207  1  0.84880000  0.00370000  0.86990000  1
  O  O208  1  0.47790000  0.42320000  0.38030000  1
  O  O209  1  0.02210000  0.92320000  0.11970000  1
  O  O210  1  0.52210000  0.57680000  0.61970000  1
  O  O211  1  0.97790000  0.07680000  0.88030000  1
  O  O212  1  0.59060000  0.66962000  0.27017000  1
  O  O213  1  0.90940000  0.16962000  0.22983000  1
  O  O214  1  0.40940000  0.33038000  0.72983000  1
  O  O215  1  0.09060000  0.83038000  0.77017000  1
  O  O216  1  0.72750000  0.63470000  0.32860000  1
  O  O217  1  0.77250000  0.13470000  0.17140000  1
  O  O218  1  0.27250000  0.36530000  0.67140000  1
  O  O219  1  0.22750000  0.86530000  0.82860000  1
  O  O220  1  0.18720000  0.59193000  0.24564000  1
  O  O221  1  0.31280000  0.09193000  0.25436000  1
  O  O222  1  0.81280000  0.40807000  0.75436000  1
  O  O223  1  0.68720000  0.90807000  0.74564000  1
  O  O224  1  0.12050000  0.55850000  0.35170000  1
  O  O225  1  0.37950000  0.05850000  0.14830000  1
  O  O226  1  0.87950000  0.44150000  0.64830000  1
  O  O227  1  0.62050000  0.94150000  0.85170000  1
  O  O228  1  0.96160000  0.52960000  0.31460000  1
  O  O229  1  0.53840000  0.02960000  0.18540000  1
  O  O230  1  0.03840000  0.47040000  0.68540000  1
  O  O231  1  0.46160000  0.97040000  0.81460000  1
  O  O232  1  0.25350000  0.49520000  0.15640000  1
  O  O233  1  0.24650000  0.99520000  0.34360000  1
  O  O234  1  0.74650000  0.50480000  0.84360000  1
  O  O235  1  0.75350000  0.00480000  0.65640000  1
  O  O236  1  0.10560000  0.44720000  0.12510000  1
  O  O237  1  0.39440000  0.94720000  0.37490000  1
  O  O238  1  0.89440000  0.55280000  0.87490000  1
  O  O239  1  0.60560000  0.05280000  0.62510000  1
  O  O240  1  0.00010000  0.67240000  0.25510000  1
  O  O241  1  0.49990000  0.17240000  0.24490000  1
  O  O242  1  0.99990000  0.32760000  0.74490000  1
  O  O243  1  0.50010000  0.82760000  0.75510000  1
  O  O244  1  0.87060000  0.64940000  0.18640000  1
  O  O245  1  0.62940000  0.14940000  0.31360000  1
  O  O246  1  0.12940000  0.35060000  0.81360000  1
  O  O247  1  0.37060000  0.85060000  0.68640000  1
  O  O248  1  0.31770000  0.69715000  0.20076000  1
  O  O249  1  0.18230000  0.19715000  0.29924000  1
  O  O250  1  0.68230000  0.30285000  0.79924000  1
  O  O251  1  0.81770000  0.80285000  0.70076000  1
  O  O252  1  0.12310000  0.72860000  0.15732000  1
  O  O253  1  0.37690000  0.22860000  0.34268000  1
  O  O254  1  0.87690000  0.27140000  0.84268000  1
  O  O255  1  0.62310000  0.77140000  0.65732000  1
  O  O256  1  0.27730000  0.62110000  0.09230000  1
  O  O257  1  0.22270000  0.12110000  0.40770000  1
  O  O258  1  0.72270000  0.37890000  0.90770000  1
  O  O259  1  0.77730000  0.87890000  0.59230000  1
  O  O260  1  0.38360000  0.64310000  0.01860000  1
  O  O261  1  0.11640000  0.14310000  0.48140000  1
  O  O262  1  0.61640000  0.35690000  0.98140000  1
  O  O263  1  0.88360000  0.85690000  0.51860000  1
  O  O264  1  0.47620000  0.79240000  0.24936000  1
  O  O265  1  0.02380000  0.29240000  0.25064000  1
  O  O266  1  0.52380000  0.20760000  0.75064000  1
  O  O267  1  0.97620000  0.70760000  0.74936000  1
  O  O268  1  0.52220000  0.84660000  0.16800000  1
  O  O269  1  0.97780000  0.34660000  0.33200000  1
  O  O270  1  0.47780000  0.15340000  0.83200000  1
  O  O271  1  0.02220000  0.65340000  0.66800000  1
  O  O272  1  0.27250000  0.69431000  0.32388000  1
  O  O273  1  0.22750000  0.19431000  0.17612000  1
  O  O274  1  0.72750000  0.30569000  0.67612000  1
  O  O275  1  0.77250000  0.80569000  0.82388000  1
  O  O276  1  0.46220000  0.72300000  0.37142000  1
  O  O277  1  0.03780000  0.22300000  0.12858000  1
  O  O278  1  0.53780000  0.27700000  0.62858000  1
  O  O279  1  0.96220000  0.77700000  0.87142000  1
  O  O280  1  0.39830000  0.75910000  0.45773000  1
  O  O281  1  0.10170000  0.25910000  0.04227000  1
  O  O282  1  0.60170000  0.24090000  0.54227000  1
  O  O283  1  0.89830000  0.74090000  0.95773000  1
  O  O284  1  0.29960000  0.61450000  0.43107000  1
  O  O285  1  0.20040000  0.11450000  0.06893000  1
  O  O286  1  0.70040000  0.38550000  0.56893000  1
  O  O287  1  0.79960000  0.88550000  0.93107000  1
  O  O288  1  0.18750000  0.63670000  0.50170000  1
  O  O289  1  0.31250000  0.13670000  0.99830000  1
  O  O290  1  0.81250000  0.36330000  0.49830000  1
  O  O291  1  0.68750000  0.86330000  0.00170000  1
  O  O292  1  0.11340000  0.79250000  0.27961000  1
  O  O293  1  0.38660000  0.29250000  0.22039000  1
  O  O294  1  0.88660000  0.20750000  0.72039000  1
  O  O295  1  0.61340000  0.70750000  0.77961000  1
  O  O296  1  0.07390000  0.85130000  0.36053000  1
  O  O297  1  0.42610000  0.35130000  0.13947000  1
  O  O298  1  0.92610000  0.14870000  0.63947000  1
  O  O299  1  0.57390000  0.64870000  0.86053000  1
  O  O300  1  0.18140000  0.76780000  0.07190000  1.0
  O  O301  1  0.31860000  0.26780000  0.42810000  1.0
  O  O302  1  0.81860000  0.23220000  0.92810000  1.0
  O  O303  1  0.68140000  0.73220000  0.57190000  1.0
