# generated using pymatgen
data_MgHC4O3
_symmetry_space_group_name_H-M   'P 1'
_cell_length_a   25.90750000
_cell_length_b   25.90750000
_cell_length_c   6.91663000
_cell_angle_alpha   90.00000000
_cell_angle_beta   90.00000000
_cell_angle_gamma   120.00000000
_symmetry_Int_Tables_number   1
_chemical_formula_structural   MgHC4O3
_chemical_formula_sum   'Mg18 H18 C72 O54'
_cell_volume   4020.46410806
_cell_formula_units_Z   18
loop_
 _symmetry_equiv_pos_site_id
 _symmetry_equiv_pos_as_xyz
  1  'x, y, z'
loop_
 _atom_site_type_symbol
 _atom_site_label
 _atom_site_symmetry_multiplicity
 _atom_site_fract_x
 _atom_site_fract_y
 _atom_site_fract_z
 _atom_site_occupancy
  Mg  Mg0  1  0.04790000  0.36200000  0.97370000  1
  Mg  Mg1  1  0.95210000  0.63800000  0.02630000  1
  Mg  Mg2  1  0.63800000  0.68590000  0.97370000  1
  Mg  Mg3  1  0.36200000  0.31410000  0.02630000  1
  Mg  Mg4  1  0.31410000  0.95210000  0.97370000  1
  Mg  Mg5  1  0.68590000  0.04790000  0.02630000  1
  Mg  Mg6  1  0.71457000  0.69533000  0.30703000  1
  Mg  Mg7  1  0.61877000  0.97133000  0.35963000  1
  Mg  Mg8  1  0.30467000  0.01923000  0.30703000  1
  Mg  Mg9  1  0.02867000  0.64743000  0.35963000  1
  Mg  Mg10  1  0.98077000  0.28543000  0.30703000  1
  Mg  Mg11  1  0.35257000  0.38123000  0.35963000  1
  Mg  Mg12  1  0.38123000  0.02867000  0.64037000  1
  Mg  Mg13  1  0.28543000  0.30467000  0.69297000  1
  Mg  Mg14  1  0.97133000  0.35257000  0.64037000  1
  Mg  Mg15  1  0.69533000  0.98077000  0.69297000  1
  Mg  Mg16  1  0.64743000  0.61877000  0.64037000  1
  Mg  Mg17  1  0.01923000  0.71457000  0.69297000  1
  H  H18  1  0.02920000  0.49550000  0.63800000  1
  H  H19  1  0.97080000  0.50450000  0.36200000  1
  H  H20  1  0.50450000  0.53370000  0.63800000  1
  H  H21  1  0.49550000  0.46630000  0.36200000  1
  H  H22  1  0.46630000  0.97080000  0.63800000  1
  H  H23  1  0.53370000  0.02920000  0.36200000  1
  H  H24  1  0.69587000  0.82883000  0.97133000  1
  H  H25  1  0.63747000  0.83783000  0.69533000  1
  H  H26  1  0.17117000  0.86703000  0.97133000  1
  H  H27  1  0.16217000  0.79963000  0.69533000  1
  H  H28  1  0.13297000  0.30413000  0.97133000  1
  H  H29  1  0.20037000  0.36253000  0.69533000  1
  H  H30  1  0.36253000  0.16217000  0.30467000  1
  H  H31  1  0.30413000  0.17117000  0.02867000  1
  H  H32  1  0.83783000  0.20037000  0.30467000  1
  H  H33  1  0.82883000  0.13297000  0.02867000  1
  H  H34  1  0.79963000  0.63747000  0.30467000  1
  H  H35  1  0.86703000  0.69587000  0.02867000  1
  C  C36  1  0.01080000  0.45510000  0.92120000  1
  C  C37  1  0.98920000  0.54490000  0.07880000  1
  C  C38  1  0.54490000  0.55570000  0.92120000  1
  C  C39  1  0.45510000  0.44430000  0.07880000  1
  C  C40  1  0.44430000  0.98920000  0.92120000  1
  C  C41  1  0.55570000  0.01080000  0.07880000  1
  C  C42  1  0.67747000  0.78843000  0.25453000  1
  C  C43  1  0.65587000  0.87823000  0.41213000  1
  C  C44  1  0.21157000  0.88903000  0.25453000  1
  C  C45  1  0.12177000  0.77763000  0.41213000  1
  C  C46  1  0.11097000  0.32253000  0.25453000  1
  C  C47  1  0.22237000  0.34413000  0.41213000  1
  C  C48  1  0.34413000  0.12177000  0.58787000  1
  C  C49  1  0.32253000  0.21157000  0.74547000  1
  C  C50  1  0.87823000  0.22237000  0.58787000  1
  C  C51  1  0.78843000  0.11097000  0.74547000  1
  C  C52  1  0.77763000  0.65587000  0.58787000  1
  C  C53  1  0.88903000  0.67747000  0.74547000  1
  C  C54  1  0.98020000  0.40020000  0.25730000  1
  C  C55  1  0.01980000  0.59980000  0.74270000  1
  C  C56  1  0.59980000  0.58000000  0.25730000  1
  C  C57  1  0.40020000  0.42000000  0.74270000  1
  C  C58  1  0.42000000  0.01980000  0.25730000  1
  C  C59  1  0.58000000  0.98020000  0.74270000  1
  C  C60  1  0.64687000  0.73353000  0.59063000  1
  C  C61  1  0.68647000  0.93313000  0.07603000  1
  C  C62  1  0.26647000  0.91333000  0.59063000  1
  C  C63  1  0.06687000  0.75333000  0.07603000  1
  C  C64  1  0.08667000  0.35313000  0.59063000  1
  C  C65  1  0.24667000  0.31353000  0.07603000  1
  C  C66  1  0.31353000  0.06687000  0.92397000  1
  C  C67  1  0.35313000  0.26647000  0.40937000  1
  C  C68  1  0.93313000  0.24667000  0.92397000  1
  C  C69  1  0.73353000  0.08667000  0.40937000  1
  C  C70  1  0.75333000  0.68647000  0.92397000  1
  C  C71  1  0.91333000  0.64687000  0.40937000  1
  C  C72  1  0.01980000  0.49900000  0.79110000  1
  C  C73  1  0.98020000  0.50100000  0.20890000  1
  C  C74  1  0.50100000  0.52080000  0.79110000  1
  C  C75  1  0.49900000  0.47920000  0.20890000  1
  C  C76  1  0.47920000  0.98020000  0.79110000  1
  C  C77  1  0.52080000  0.01980000  0.20890000  1
  C  C78  1  0.68647000  0.83233000  0.12443000  1
  C  C79  1  0.64687000  0.83433000  0.54223000  1
  C  C80  1  0.16767000  0.85413000  0.12443000  1
  C  C81  1  0.16567000  0.81253000  0.54223000  1
  C  C82  1  0.14587000  0.31353000  0.12443000  1
  C  C83  1  0.18747000  0.35313000  0.54223000  1
  C  C84  1  0.35313000  0.16567000  0.45777000  1
  C  C85  1  0.31353000  0.16767000  0.87557000  1
  C  C86  1  0.83433000  0.18747000  0.45777000  1
  C  C87  1  0.83233000  0.14587000  0.87557000  1
  C  C88  1  0.81253000  0.64687000  0.45777000  1
  C  C89  1  0.85413000  0.68647000  0.87557000  1
  C  C90  1  0.99420000  0.45590000  0.12500000  1
  C  C91  1  0.00580000  0.54410000  0.87500000  1
  C  C92  1  0.54410000  0.53830000  0.12500000  1
  C  C93  1  0.45590000  0.46170000  0.87500000  1
  C  C94  1  0.46170000  0.00580000  0.12500000  1
  C  C95  1  0.53830000  0.99420000  0.87500000  1
  C  C96  1  0.66087000  0.78923000  0.45833000  1
  C  C97  1  0.67247000  0.87743000  0.20833000  1
  C  C98  1  0.21077000  0.87163000  0.45833000  1
  C  C99  1  0.12257000  0.79503000  0.20833000  1
  C  C100  1  0.12837000  0.33913000  0.45833000  1
  C  C101  1  0.20497000  0.32753000  0.20833000  1
  C  C102  1  0.32753000  0.12257000  0.79167000  1
  C  C103  1  0.33913000  0.21077000  0.54167000  1
  C  C104  1  0.87743000  0.20497000  0.79167000  1
  C  C105  1  0.78923000  0.12837000  0.54167000  1
  C  C106  1  0.79503000  0.67247000  0.79167000  1
  C  C107  1  0.87163000  0.66087000  0.54167000  1
  O  O108  1  0.02160000  0.41290000  0.84650000  1
  O  O109  1  0.97840000  0.58710000  0.15350000  1
  O  O110  1  0.58710000  0.60870000  0.84650000  1
  O  O111  1  0.41290000  0.39130000  0.15350000  1
  O  O112  1  0.39130000  0.97840000  0.84650000  1
  O  O113  1  0.60870000  0.02160000  0.15350000  1
  O  O114  1  0.68827000  0.74623000  0.17983000  1
  O  O115  1  0.64507000  0.92043000  0.48683000  1
  O  O116  1  0.25377000  0.94203000  0.17983000  1
  O  O117  1  0.07957000  0.72463000  0.48683000  1
  O  O118  1  0.05797000  0.31173000  0.17983000  1
  O  O119  1  0.27537000  0.35493000  0.48683000  1
  O  O120  1  0.35493000  0.07957000  0.51317000  1
  O  O121  1  0.31173000  0.25377000  0.82017000  1
  O  O122  1  0.92043000  0.27537000  0.51317000  1
  O  O123  1  0.74623000  0.05797000  0.82017000  1
  O  O124  1  0.72463000  0.64507000  0.51317000  1
  O  O125  1  0.94203000  0.68827000  0.82017000  1
  O  O126  1  0.99030000  0.36320000  0.18680000  1
  O  O127  1  0.00970000  0.63680000  0.81320000  1
  O  O128  1  0.63680000  0.62710000  0.18680000  1
  O  O129  1  0.36320000  0.37290000  0.81320000  1
  O  O130  1  0.37290000  0.00970000  0.18680000  1
  O  O131  1  0.62710000  0.99030000  0.81320000  1
  O  O132  1  0.65697000  0.69653000  0.52013000  1
  O  O133  1  0.67637000  0.97013000  0.14653000  1
  O  O134  1  0.30347000  0.96043000  0.52013000  1
  O  O135  1  0.02987000  0.70623000  0.14653000  1
  O  O136  1  0.03957000  0.34303000  0.52013000  1
  O  O137  1  0.29377000  0.32363000  0.14653000  1
  O  O138  1  0.32363000  0.02987000  0.85347000  1
  O  O139  1  0.34303000  0.30347000  0.47987000  1
  O  O140  1  0.97013000  0.29377000  0.85347000  1
  O  O141  1  0.69653000  0.03957000  0.47987000  1
  O  O142  1  0.70623000  0.67637000  0.85347000  1
  O  O143  1  0.96043000  0.65697000  0.47987000  1
  O  O144  1  0.96990000  0.40700000  0.42250000  1
  O  O145  1  0.03010000  0.59300000  0.57750000  1
  O  O146  1  0.59300000  0.56290000  0.42250000  1
  O  O147  1  0.40700000  0.43710000  0.57750000  1
  O  O148  1  0.43710000  0.03010000  0.42250000  1
  O  O149  1  0.56290000  0.96990000  0.57750000  1
  O  O150  1  0.63657000  0.74033000  0.75583000  1
  O  O151  1  0.69677000  0.92633000  0.91083000  1
  O  O152  1  0.25967000  0.89623000  0.75583000  1
  O  O153  1  0.07367000  0.77043000  0.91083000  1
  O  O154  1  0.10377000  0.36343000  0.75583000  1
  O  O155  1  0.22957000  0.30323000  0.91083000  1
  O  O156  1  0.30323000  0.07367000  0.08917000  1
  O  O157  1  0.36343000  0.25967000  0.24417000  1
  O  O158  1  0.92633000  0.22957000  0.08917000  1
  O  O159  1  0.74033000  0.10377000  0.24417000  1
  O  O160  1  0.77043000  0.69677000  0.08917000  1
  O  O161  1  0.89623000  0.63657000  0.24417000  1
