# generated using pymatgen
data_NdC8NO10
_symmetry_space_group_name_H-M   'P 1'
_cell_length_a   8.56310000
_cell_length_b   9.02790000
_cell_length_c   18.13620000
_cell_angle_alpha   90.00000000
_cell_angle_beta   90.00000000
_cell_angle_gamma   102.73500000
_symmetry_Int_Tables_number   1
_chemical_formula_structural   NdC8NO10
_chemical_formula_sum   'Nd4 C32 N4 O40'
_cell_volume   1367.56139460
_cell_formula_units_Z   4
loop_
 _symmetry_equiv_pos_site_id
 _symmetry_equiv_pos_as_xyz
  1  'x, y, z'
loop_
 _atom_site_type_symbol
 _atom_site_label
 _atom_site_symmetry_multiplicity
 _atom_site_fract_x
 _atom_site_fract_y
 _atom_site_fract_z
 _atom_site_occupancy
  Nd  Nd0  1  0.06426000  0.26854000  0.11923500  1.0
  Nd  Nd1  1  0.56426000  0.26854000  0.38076500  1.0
  Nd  Nd2  1  0.93574000  0.73146000  0.88076500  1.0
  Nd  Nd3  1  0.43574000  0.73146000  0.61923500  1.0
  C  C4  1  0.41680000  0.30870000  0.92480000  1
  C  C5  1  0.91680000  0.30870000  0.57520000  1
  C  C6  1  0.58320000  0.69130000  0.07520000  1
  C  C7  1  0.08320000  0.69130000  0.42480000  1
  C  C8  1  0.42480000  0.16370000  0.88130000  1
  C  C9  1  0.92480000  0.16370000  0.61870000  1
  C  C10  1  0.57520000  0.83630000  0.11870000  1
  C  C11  1  0.07520000  0.83630000  0.38130000  1
  C  C12  1  0.59760000  0.13650000  0.87410000  1
  C  C13  1  0.09760000  0.13650000  0.62590000  1
  C  C14  1  0.40240000  0.86350000  0.12590000  1
  C  C15  1  0.90240000  0.86350000  0.37410000  1
  C  C16  1  0.25360000  0.20360000  0.26900000  1.0
  C  C17  1  0.75360000  0.20360000  0.23100000  1.0
  C  C18  1  0.74640000  0.79640000  0.73100000  1.0
  C  C19  1  0.24640000  0.79640000  0.76900000  1.0
  C  C20  1  0.35120000  0.36210000  0.24300000  1.0
  C  C21  1  0.85120000  0.36210000  0.25700000  1.0
  C  C22  1  0.64880000  0.63790000  0.75700000  1.0
  C  C23  1  0.14880000  0.63790000  0.74300000  1.0
  C  C24  1  0.09130000  0.52490000  0.99300000  1.0
  C  C25  1  0.59130000  0.52490000  0.50700000  1.0
  C  C26  1  0.90870000  0.47510000  0.00700000  1.0
  C  C27  1  0.40870000  0.47510000  0.49300000  1.0
  C  C28  1  0.99730000  0.05740000  0.96870000  1.0
  C  C29  1  0.49730000  0.05740000  0.53130000  1.0
  C  C30  1  0.00270000  0.94260000  0.03130000  1.0
  C  C31  1  0.50270000  0.94260000  0.46870000  1.0
  C  C32  1  0.44850000  0.27230000  0.05370000  1.0
  C  C33  1  0.94850000  0.27230000  0.44630000  1.0
  C  C34  1  0.55150000  0.72770000  0.94630000  1.0
  C  C35  1  0.05150000  0.72770000  0.55370000  1.0
  N  N36  1  0.31680000  0.16590000  0.81360000  1
  N  N37  1  0.81680000  0.16590000  0.68640000  1
  N  N38  1  0.68320000  0.83410000  0.18640000  1
  N  N39  1  0.18320000  0.83410000  0.31360000  1
  O  O40  1  0.18060000  0.48790000  0.04090000  1.0
  O  O41  1  0.68060000  0.48790000  0.45910000  1.0
  O  O42  1  0.81940000  0.51210000  0.95910000  1.0
  O  O43  1  0.31940000  0.51210000  0.54090000  1.0
  O  O44  1  0.13570000  0.59690000  0.93530000  1.0
  O  O45  1  0.63570000  0.59690000  0.56470000  1.0
  O  O46  1  0.86430000  0.40310000  0.06470000  1.0
  O  O47  1  0.36430000  0.40310000  0.43530000  1.0
  O  O48  1  0.30770000  0.20220000  0.06270000  1.0
  O  O49  1  0.80770000  0.20220000  0.43730000  1.0
  O  O50  1  0.69230000  0.79780000  0.93730000  1.0
  O  O51  1  0.19230000  0.79780000  0.56270000  1.0
  O  O52  1  0.52000000  0.32000000  0.11000000  1.0
  O  O53  1  0.02000000  0.32000000  0.39000000  1.0
  O  O54  1  0.48000000  0.68000000  0.89000000  1.0
  O  O55  1  0.98000000  0.68000000  0.61000000  1.0
  O  O56  1  0.30270000  0.41640000  0.18660000  1.0
  O  O57  1  0.80270000  0.41640000  0.31340000  1.0
  O  O58  1  0.69730000  0.58360000  0.81340000  1.0
  O  O59  1  0.19730000  0.58360000  0.68660000  1.0
  O  O60  1  0.30280000  0.14760000  0.32550000  1.0
  O  O61  1  0.80280000  0.14760000  0.17450000  1.0
  O  O62  1  0.69720000  0.85240000  0.67450000  1.0
  O  O63  1  0.19720000  0.85240000  0.82550000  1.0
  O  O64  1  0.13460000  0.14330000  0.23240000  1.0
  O  O65  1  0.63460000  0.14330000  0.26760000  1.0
  O  O66  1  0.86540000  0.85670000  0.76760000  1.0
  O  O67  1  0.36540000  0.85670000  0.73240000  1.0
  O  O68  1  0.47120000  0.42070000  0.28140000  1.0
  O  O69  1  0.97120000  0.42070000  0.21860000  1.0
  O  O70  1  0.52880000  0.57930000  0.71860000  1.0
  O  O71  1  0.02880000  0.57930000  0.78140000  1.0
  O  O72  1  0.99590000  0.18990000  0.98710000  1.0
  O  O73  1  0.49590000  0.18990000  0.51290000  1.0
  O  O74  1  0.00410000  0.81010000  0.01290000  1.0
  O  O75  1  0.50410000  0.81010000  0.48710000  1.0
  O  O76  1  0.99620000  0.00990000  0.90400000  1.0
  O  O77  1  0.49620000  0.00990000  0.59600000  1.0
  O  O78  1  0.00380000  0.99010000  0.09600000  1.0
  O  O79  1  0.50380000  0.99010000  0.40400000  1.0
