# generated using pymatgen
data_NdH6(C2O)6
_symmetry_space_group_name_H-M   'P 1'
_cell_length_a   11.14360000
_cell_length_b   17.85000000
_cell_length_c   29.34000000
_cell_angle_alpha   86.63800000
_cell_angle_beta   79.66600000
_cell_angle_gamma   73.20600000
_symmetry_Int_Tables_number   1
_chemical_formula_structural   NdH6(C2O)6
_chemical_formula_sum   'Nd12 H72 C144 O72'
_cell_volume   5496.42812053
_cell_formula_units_Z   12
loop_
 _symmetry_equiv_pos_site_id
 _symmetry_equiv_pos_as_xyz
  1  'x, y, z'
loop_
 _atom_site_type_symbol
 _atom_site_label
 _atom_site_symmetry_multiplicity
 _atom_site_fract_x
 _atom_site_fract_y
 _atom_site_fract_z
 _atom_site_occupancy
  Nd  Nd0  1  0.24387000  0.28921000  0.62066000  1.0
  Nd  Nd1  1  0.56060000  0.39016000  0.96491000  1.0
  Nd  Nd2  1  0.11586000  0.50474000  0.69082000  1.0
  Nd  Nd3  1  0.54628000  0.11016000  0.96419000  1.0
  Nd  Nd4  1  0.10735000  0.79484000  0.71046000  1.0
  Nd  Nd5  1  0.19834000  0.01381000  0.64326000  1.0
  Nd  Nd6  1  0.75613000  0.71079000  0.37934000  1.0
  Nd  Nd7  1  0.43940000  0.60984000  0.03509000  1.0
  Nd  Nd8  1  0.88414000  0.49526000  0.30919000  1.0
  Nd  Nd9  1  0.45372000  0.88984000  0.03581000  1.0
  Nd  Nd10  1  0.89265000  0.20516000  0.28954000  1.0
  Nd  Nd11  1  0.80166000  0.98619000  0.35674000  1.0
  H  H12  1  0.98940000  0.26330000  0.95090000  1.0
  H  H13  1  0.18400000  0.20850000  0.97340000  1.0
  H  H14  1  0.04840000  0.03900000  0.04050000  1.0
  H  H15  1  0.85690000  0.09250000  0.01590000  1.0
  H  H16  1  0.49660000  0.00580000  0.69570000  1.0
  H  H17  1  0.68160000  0.94600000  0.72220000  1.0
  H  H18  1  0.85510000  0.08780000  0.64270000  1.0
  H  H19  1  0.67040000  0.14500000  0.61460000  1.0
  H  H20  1  0.68940000  0.62440000  0.70670000  1.0
  H  H21  1  0.49360000  0.67940000  0.68620000  1.0
  H  H22  1  0.59660000  0.87340000  0.64500000  1.0
  H  H23  1  0.79080000  0.81870000  0.66760000  1.0
  H  H24  1  0.74660000  0.15680000  0.16990000  1.0
  H  H25  1  0.68880000  0.13910000  0.10060000  1.0
  H  H26  1  0.58840000  0.94950000  0.15270000  1.0
  H  H27  1  0.65010000  0.96590000  0.22150000  1.0
  H  H28  1  0.03770000  0.23470000  0.42200000  1.0
  H  H29  1  0.09600000  0.25550000  0.49040000  1.0
  H  H30  1  0.96840000  0.07720000  0.54920000  1.0
  H  H31  1  0.90750000  0.05790000  0.48140000  1.0
  H  H32  1  0.61920000  0.28290000  0.64440000  1.0
  H  H33  1  0.82400000  0.26780000  0.65610000  1.0
  H  H34  1  0.74320000  0.49750000  0.67150000  1.0
  H  H35  1  0.54090000  0.51280000  0.65860000  1.0
  H  H36  1  0.40240000  0.70120000  0.86940000  1.0
  H  H37  1  0.31320000  0.49900000  0.89540000  1.0
  H  H38  1  0.34970000  0.70660000  0.79660000  1.0
  H  H39  1  0.25400000  0.50590000  0.82360000  1.0
  H  H40  1  0.42720000  0.38190000  0.83390000  1.0
  H  H41  1  0.36430000  0.39170000  0.76220000  1.0
  H  H42  1  0.25760000  0.19550000  0.78970000  1.0
  H  H43  1  0.31010000  0.19080000  0.86280000  1.0
  H  H44  1  0.02610000  0.60750000  0.53170000  1.0
  H  H45  1  0.97230000  0.61650000  0.45940000  1.0
  H  H46  1  0.94420000  0.39120000  0.98350000  1.0
  H  H47  1  0.14620000  0.37860000  0.99560000  1.0
  H  H48  1  0.01060000  0.73670000  0.04910000  1.0
  H  H49  1  0.81600000  0.79150000  0.02660000  1.0
  H  H50  1  0.95160000  0.96100000  0.95950000  1.0
  H  H51  1  0.14310000  0.90750000  0.98410000  1.0
  H  H52  1  0.50340000  0.99420000  0.30430000  1.0
  H  H53  1  0.31840000  0.05400000  0.27780000  1.0
  H  H54  1  0.14490000  0.91220000  0.35730000  1.0
  H  H55  1  0.32960000  0.85500000  0.38540000  1.0
  H  H56  1  0.31060000  0.37560000  0.29330000  1.0
  H  H57  1  0.50640000  0.32060000  0.31380000  1.0
  H  H58  1  0.40340000  0.12660000  0.35500000  1.0
  H  H59  1  0.20920000  0.18130000  0.33240000  1.0
  H  H60  1  0.25340000  0.84320000  0.83010000  1.0
  H  H61  1  0.31120000  0.86090000  0.89940000  1.0
  H  H62  1  0.41160000  0.05050000  0.84730000  1.0
  H  H63  1  0.34990000  0.03410000  0.77850000  1.0
  H  H64  1  0.96230000  0.76530000  0.57800000  1.0
  H  H65  1  0.90400000  0.74450000  0.50960000  1.0
  H  H66  1  0.03160000  0.92280000  0.45080000  1.0
  H  H67  1  0.09250000  0.94210000  0.51860000  1.0
  H  H68  1  0.38080000  0.71710000  0.35560000  1.0
  H  H69  1  0.17600000  0.73220000  0.34390000  1.0
  H  H70  1  0.25680000  0.50250000  0.32850000  1.0
  H  H71  1  0.45910000  0.48720000  0.34140000  1.0
  H  H72  1  0.59760000  0.29880000  0.13060000  1.0
  H  H73  1  0.68680000  0.50100000  0.10460000  1.0
  H  H74  1  0.65030000  0.29340000  0.20340000  1.0
  H  H75  1  0.74600000  0.49410000  0.17640000  1.0
  H  H76  1  0.57280000  0.61810000  0.16610000  1.0
  H  H77  1  0.63570000  0.60830000  0.23780000  1.0
  H  H78  1  0.74240000  0.80450000  0.21030000  1.0
  H  H79  1  0.68990000  0.80920000  0.13720000  1.0
  H  H80  1  0.97390000  0.39250000  0.46830000  1.0
  H  H81  1  0.02770000  0.38350000  0.54060000  1.0
  H  H82  1  0.05580000  0.60880000  0.01650000  1.0
  H  H83  1  0.85380000  0.62140000  0.00440000  1.0
  C  C84  1  0.90640000  0.18220000  0.97940000  1.0
  C  C85  1  0.00280000  0.21710000  0.96820000  1.0
  C  C86  1  0.11850000  0.18530000  0.98190000  1.0
  C  C87  1  0.13610000  0.11630000  0.00940000  1.0
  C  C88  1  0.03740000  0.08360000  0.02180000  1.0
  C  C89  1  0.92280000  0.11540000  0.00720000  1.0
  C  C90  1  0.78410000  0.21430000  0.96000000  1.0
  C  C91  1  0.26510000  0.07980000  0.02380000  1.0
  C  C92  1  0.56570000  0.08020000  0.65070000  1.0
  C  C93  1  0.56940000  0.02120000  0.68430000  1.0
  C  C94  1  0.67930000  0.98630000  0.70050000  1.0
  C  C95  1  0.78670000  0.00950000  0.68540000  1.0
  C  C96  1  0.78340000  0.07070000  0.65280000  1.0
  C  C97  1  0.67310000  0.10450000  0.63620000  1.0
  C  C98  1  0.44530000  0.11610000  0.63090000  1.0
  C  C99  1  0.91190000  0.96650000  0.70220000  1.0
  C  C100  1  0.67010000  0.67510000  0.69480000  1.0
  C  C101  1  0.55320000  0.70750000  0.68250000  1.0
  C  C102  1  0.52430000  0.78390000  0.66410000  1.0
  C  C103  1  0.61450000  0.82350000  0.65810000  1.0
  C  C104  1  0.73120000  0.79060000  0.67120000  1.0
  C  C105  1  0.75990000  0.71540000  0.69000000  1.0
  C  C106  1  0.39030000  0.82200000  0.65260000  1.0
  C  C107  1  0.88560000  0.68310000  0.70660000  1.0
  C  C108  1  0.71620000  0.11450000  0.16630000  1.0
  C  C109  1  0.68060000  0.10400000  0.12480000  1.0
  C  C110  1  0.63360000  0.04280000  0.11860000  1.0
  C  C111  1  0.62140000  0.99090000  0.15580000  1.0
  C  C112  1  0.65820000  0.00090000  0.19720000  1.0
  C  C113  1  0.70640000  0.06170000  0.20280000  1.0
  C  C114  1  0.59170000  0.03210000  0.07380000  1.0
  C  C115  1  0.74980000  0.07170000  0.24730000  1.0
  C  C116  1  0.02410000  0.20300000  0.44760000  1.0
  C  C117  1  0.05940000  0.21540000  0.48840000  1.0
  C  C118  1  0.04000000  0.16710000  0.52710000  1.0
  C  C119  1  0.98260000  0.10870000  0.52360000  1.0
  C  C120  1  0.94650000  0.09700000  0.48300000  1.0
  C  C121  1  0.96780000  0.14320000  0.44410000  1.0
  C  C122  1  0.08880000  0.17500000  0.57090000  1.0
  C  C123  1  0.93180000  0.12590000  0.39950000  1.0
  C  C124  1  0.64460000  0.32660000  0.64920000  1.0
  C  C125  1  0.76670000  0.31750000  0.65660000  1.0
  C  C126  1  0.80390000  0.38190000  0.66480000  1.0
  C  C127  1  0.71900000  0.45380000  0.66560000  1.0
  C  C128  1  0.59790000  0.46300000  0.65780000  1.0
  C  C129  1  0.55990000  0.40000000  0.64900000  1.0
  C  C130  1  0.42950000  0.41020000  0.63860000  1.0
  C  C131  1  0.93890000  0.37260000  0.67370000  1.0
  C  C132  1  0.37340000  0.66170000  0.85990000  1.0
  C  C133  1  0.36260000  0.59940000  0.88980000  1.0
  C  C134  1  0.31930000  0.54100000  0.87580000  1.0
  C  C135  1  0.34130000  0.66530000  0.81650000  1.0
  C  C136  1  0.39910000  0.59710000  0.93680000  1.0
  C  C137  1  0.25390000  0.61140000  0.75580000  1.0
  C  C138  1  0.28490000  0.54480000  0.83270000  1.0
  C  C139  1  0.29640000  0.60680000  0.80280000  1.0
  C  C140  1  0.41450000  0.28060000  0.90260000  1.0
  C  C141  1  0.37300000  0.28570000  0.85600000  1.0
  C  C142  1  0.39110000  0.34510000  0.82530000  1.0
  C  C143  1  0.35590000  0.35010000  0.78190000  1.0
  C  C144  1  0.30840000  0.29350000  0.76810000  1.0
  C  C145  1  0.29070000  0.23350000  0.79860000  1.0
  C  C146  1  0.32280000  0.23070000  0.84240000  1.0
  C  C147  1  0.27300000  0.29720000  0.72000000  1.0
  C  C148  1  0.01580000  0.56380000  0.51890000  1.0
  C  C149  1  0.98320000  0.56940000  0.47570000  1.0
  C  C150  1  0.03340000  0.49490000  0.54370000  1.0
  C  C151  1  0.07050000  0.48950000  0.59080000  1.0
  C  C152  1  0.96680000  0.43520000  0.99000000  1.0
  C  C153  1  0.08700000  0.42760000  0.99760000  1.0
  C  C154  1  0.74520000  0.51590000  0.98210000  1.0
  C  C155  1  0.87830000  0.50810000  0.99180000  1.0
  C  C156  1  0.09360000  0.81780000  0.02060000  1.0
  C  C157  1  0.99720000  0.78290000  0.03180000  1.0
  C  C158  1  0.88150000  0.81470000  0.01810000  1.0
  C  C159  1  0.86390000  0.88370000  0.99060000  1.0
  C  C160  1  0.96260000  0.91640000  0.97820000  1.0
  C  C161  1  0.07720000  0.88460000  0.99280000  1.0
  C  C162  1  0.21590000  0.78570000  0.04000000  1.0
  C  C163  1  0.73490000  0.92020000  0.97620000  1.0
  C  C164  1  0.43430000  0.91980000  0.34930000  1.0
  C  C165  1  0.43060000  0.97880000  0.31570000  1.0
  C  C166  1  0.32070000  0.01370000  0.29950000  1.0
  C  C167  1  0.21330000  0.99050000  0.31460000  1.0
  C  C168  1  0.21660000  0.92930000  0.34720000  1.0
  C  C169  1  0.32690000  0.89550000  0.36380000  1.0
  C  C170  1  0.55470000  0.88390000  0.36910000  1.0
  C  C171  1  0.08810000  0.03350000  0.29780000  1.0
  C  C172  1  0.32990000  0.32490000  0.30520000  1.0
  C  C173  1  0.44680000  0.29250000  0.31750000  1.0
  C  C174  1  0.47570000  0.21610000  0.33590000  1.0
  C  C175  1  0.38550000  0.17650000  0.34190000  1.0
  C  C176  1  0.26880000  0.20940000  0.32880000  1.0
  C  C177  1  0.24010000  0.28460000  0.31000000  1.0
  C  C178  1  0.60970000  0.17800000  0.34740000  1.0
  C  C179  1  0.11440000  0.31690000  0.29340000  1.0
  C  C180  1  0.28380000  0.88550000  0.83370000  1.0
  C  C181  1  0.31940000  0.89600000  0.87520000  1.0
  C  C182  1  0.36640000  0.95720000  0.88140000  1.0
  C  C183  1  0.37860000  0.00910000  0.84420000  1.0
  C  C184  1  0.34180000  0.99910000  0.80280000  1.0
  C  C185  1  0.29360000  0.93830000  0.79720000  1.0
  C  C186  1  0.40830000  0.96790000  0.92620000  1.0
  C  C187  1  0.25020000  0.92830000  0.75270000  1.0
  C  C188  1  0.97590000  0.79700000  0.55240000  1.0
  C  C189  1  0.94060000  0.78460000  0.51160000  1.0
  C  C190  1  0.96000000  0.83290000  0.47290000  1.0
  C  C191  1  0.01740000  0.89130000  0.47640000  1.0
  C  C192  1  0.05350000  0.90300000  0.51700000  1.0
  C  C193  1  0.03220000  0.85680000  0.55590000  1.0
  C  C194  1  0.91120000  0.82500000  0.42910000  1.0
  C  C195  1  0.06820000  0.87410000  0.60050000  1.0
  C  C196  1  0.35540000  0.67340000  0.35080000  1.0
  C  C197  1  0.23330000  0.68250000  0.34340000  1.0
  C  C198  1  0.19610000  0.61810000  0.33520000  1.0
  C  C199  1  0.28100000  0.54620000  0.33440000  1.0
  C  C200  1  0.40210000  0.53700000  0.34220000  1.0
  C  C201  1  0.44010000  0.60000000  0.35100000  1.0
  C  C202  1  0.57050000  0.58980000  0.36140000  1.0
  C  C203  1  0.06110000  0.62740000  0.32630000  1.0
  C  C204  1  0.62660000  0.33830000  0.14010000  1.0
  C  C205  1  0.63740000  0.40060000  0.11020000  1.0
  C  C206  1  0.68070000  0.45900000  0.12420000  1.0
  C  C207  1  0.65870000  0.33470000  0.18350000  1.0
  C  C208  1  0.60090000  0.40290000  0.06320000  1.0
  C  C209  1  0.74610000  0.38860000  0.24420000  1.0
  C  C210  1  0.71510000  0.45520000  0.16730000  1.0
  C  C211  1  0.70360000  0.39320000  0.19720000  1.0
  C  C212  1  0.58550000  0.71940000  0.09740000  1.0
  C  C213  1  0.62700000  0.71430000  0.14400000  1.0
  C  C214  1  0.60890000  0.65490000  0.17470000  1.0
  C  C215  1  0.64410000  0.64990000  0.21810000  1.0
  C  C216  1  0.69160000  0.70650000  0.23190000  1.0
  C  C217  1  0.70930000  0.76650000  0.20140000  1.0
  C  C218  1  0.67720000  0.76930000  0.15760000  1.0
  C  C219  1  0.72700000  0.70280000  0.28000000  1.0
  C  C220  1  0.98420000  0.43620000  0.48110000  1.0
  C  C221  1  0.01680000  0.43060000  0.52430000  1.0
  C  C222  1  0.96660000  0.50510000  0.45630000  1.0
  C  C223  1  0.92950000  0.51050000  0.40920000  1.0
  C  C224  1  0.03320000  0.56480000  0.01000000  1.0
  C  C225  1  0.91300000  0.57240000  0.00240000  1.0
  C  C226  1  0.25480000  0.48410000  0.01790000  1.0
  C  C227  1  0.12170000  0.49190000  0.00820000  1.0
  O  O228  1  0.72010000  0.16720000  0.95790000  1.0
  O  O229  1  0.75560000  0.28320000  0.94520000  1.0
  O  O230  1  0.34640000  0.11550000  0.01480000  1.0
  O  O231  1  0.27890000  0.01470000  0.04370000  1.0
  O  O232  1  0.43840000  0.17670000  0.60690000  1.0
  O  O233  1  0.35990000  0.08390000  0.63890000  1.0
  O  O234  1  0.00510000  0.99270000  0.69000000  1.0
  O  O235  1  0.91390000  0.90900000  0.72700000  1.0
  O  O236  1  0.37460000  0.88980000  0.63640000  1.0
  O  O237  1  0.31180000  0.78520000  0.65960000  1.0
  O  O238  1  0.92010000  0.61090000  0.71440000  1.0
  O  O239  1  0.94360000  0.72890000  0.71480000  1.0
  O  O240  1  0.74210000  0.01960000  0.27790000  1.0
  O  O241  1  0.55110000  0.97450000  0.07080000  1.0
  O  O242  1  0.60480000  0.08120000  0.04210000  1.0
  O  O243  1  0.88490000  0.07120000  0.39950000  1.0
  O  O244  1  0.95390000  0.17030000  0.36510000  1.0
  O  O245  1  0.07070000  0.12710000  0.60310000  1.0
  O  O246  1  0.14100000  0.22670000  0.57270000  1.0
  O  O247  1  0.34340000  0.47400000  0.64970000  1.0
  O  O248  1  0.41240000  0.35430000  0.61900000  1.0
  O  O249  1  0.02420000  0.30860000  0.66330000  1.0
  O  O250  1  0.95470000  0.43160000  0.69050000  1.0
  O  O251  1  0.37200000  0.65970000  0.95840000  1.0
  O  O252  1  0.45240000  0.53170000  0.95379000  1.0
  O  O253  1  0.25480000  0.67130000  0.73190000  1.0
  O  O254  1  0.22420000  0.55480000  0.74420000  1.0
  O  O255  1  0.45490000  0.33390000  0.91370000  1.0
  O  O256  1  0.40240000  0.22210000  0.92780000  1.0
  O  O257  1  0.29070000  0.23490000  0.70010000  1.0
  O  O258  1  0.23040000  0.36300000  0.70140000  1.0
  O  O259  1  0.03520000  0.55180000  0.61410000  1.0
  O  O260  1  0.13020000  0.42600000  0.60600000  1.0
  O  O261  1  0.66160000  0.57910000  0.99280000  1.0
  O  O262  1  0.73070000  0.45760000  0.96420000  1.0
  O  O263  1  0.79200000  0.12860000  0.25050000  1.0
  O  O264  1  0.27990000  0.83280000  0.04210000  1.0
  O  O265  1  0.24440000  0.71680000  0.05480000  1.0
  O  O266  1  0.65360000  0.88450000  0.98520000  1.0
  O  O267  1  0.72110000  0.98530000  0.95630000  1.0
  O  O268  1  0.56160000  0.82330000  0.39310000  1.0
  O  O269  1  0.64010000  0.91610000  0.36110000  1.0
  O  O270  1  0.99490000  0.00730000  0.31000000  1.0
  O  O271  1  0.08610000  0.09100000  0.27300000  1.0
  O  O272  1  0.62540000  0.11020000  0.36360000  1.0
  O  O273  1  0.68820000  0.21480000  0.34040000  1.0
  O  O274  1  0.07990000  0.38910000  0.28560000  1.0
  O  O275  1  0.05640000  0.27110000  0.28520000  1.0
  O  O276  1  0.25790000  0.98040000  0.72210000  1.0
  O  O277  1  0.44890000  0.02550000  0.92920000  1.0
  O  O278  1  0.39520000  0.91880000  0.95790000  1.0
  O  O279  1  0.11510000  0.92880000  0.60050000  1.0
  O  O280  1  0.04610000  0.82970000  0.63490000  1.0
  O  O281  1  0.92930000  0.87290000  0.39690000  1.0
  O  O282  1  0.85900000  0.77330000  0.42730000  1.0
  O  O283  1  0.65660000  0.52600000  0.35030000  1.0
  O  O284  1  0.58760000  0.64570000  0.38100000  1.0
  O  O285  1  0.97580000  0.69140000  0.33670000  1.0
  O  O286  1  0.04530000  0.56840000  0.30950000  1.0
  O  O287  1  0.62800000  0.34030000  0.04160000  1.0
  O  O288  1  0.54760000  0.46830000  0.04621000  1.0
  O  O289  1  0.74520000  0.32870000  0.26810000  1.0
  O  O290  1  0.77580000  0.44520000  0.25580000  1.0
  O  O291  1  0.54510000  0.66610000  0.08630000  1.0
  O  O292  1  0.59760000  0.77790000  0.07220000  1.0
  O  O293  1  0.70930000  0.76510000  0.29990000  1.0
  O  O294  1  0.76960000  0.63700000  0.29860000  1.0
  O  O295  1  0.96480000  0.44820000  0.38590000  1.0
  O  O296  1  0.86980000  0.57400000  0.39400000  1.0
  O  O297  1  0.33840000  0.42090000  0.00720000  1.0
  O  O298  1  0.26930000  0.54240000  0.03580000  1.0
  O  O299  1  0.20800000  0.87140000  0.74950000  1.0
