# generated using pymatgen
data_MnHC4O3
_symmetry_space_group_name_H-M   'P 1'
_cell_length_a   6.80883000
_cell_length_b   15.50933741
_cell_length_c   15.50933741
_cell_angle_alpha   117.89661849
_cell_angle_beta   98.41478460
_cell_angle_gamma   98.41478460
_symmetry_Int_Tables_number   1
_chemical_formula_structural   MnHC4O3
_chemical_formula_sum   'Mn6 H6 C24 O18'
_cell_volume   1387.99599061
_cell_formula_units_Z   6
loop_
 _symmetry_equiv_pos_site_id
 _symmetry_equiv_pos_as_xyz
  1  'x, y, z'
loop_
 _atom_site_type_symbol
 _atom_site_label
 _atom_site_symmetry_multiplicity
 _atom_site_fract_x
 _atom_site_fract_y
 _atom_site_fract_z
 _atom_site_occupancy
  C  C0  1  0.60790000  0.44077000  0.52298000  1.0
  C  C1  1  0.08492000  0.47702000  0.91779000  1.0
  C  C2  1  0.16713000  0.08221000  0.55923000  1.0
  C  C3  1  0.39210000  0.55923000  0.47702000  1.0
  C  C4  1  0.91508000  0.52298000  0.08221000  1.0
  C  C5  1  0.83287000  0.91779000  0.44077000  1.0
  C  C6  1  0.43239000  0.45979000  0.55712000  1.0
  C  C7  1  0.87527000  0.44288000  0.90267000  1.0
  C  C8  1  0.97260000  0.09733000  0.54021000  1.0
  C  C9  1  0.56761000  0.54021000  0.44288000  1.0
  C  C10  1  0.12473000  0.55712000  0.09733000  1.0
  C  C11  1  0.02740000  0.90267000  0.45979000  1.0
  C  C12  1  0.32450000  0.51903000  0.53415000  1.0
  C  C13  1  0.79035000  0.46585000  0.98488000  1.0
  C  C14  1  0.80547000  0.01512000  0.48097000  1.0
  C  C15  1  0.67550000  0.48097000  0.46585000  1.0
  C  C16  1  0.20965000  0.53415000  0.01512000  1.0
  C  C17  1  0.19453000  0.98488000  0.51903000  1.0
  C  C18  1  0.72395000  0.37707000  0.54768000  1.0
  C  C19  1  0.17627000  0.45232000  0.82939000  1.0
  C  C20  1  0.34688000  0.17061000  0.62293000  1.0
  C  C21  1  0.27605000  0.62293000  0.45232000  1.0
  C  C22  1  0.82373000  0.54768000  0.17061000  1.0
  C  C23  1  0.65312000  0.82939000  0.37707000  1.0
  H  H24  1  0.18820000  0.53380000  0.56066000  1.0
  H  H25  1  0.62754000  0.43934000  0.97314000  1.0
  H  H26  1  0.65440000  0.02686000  0.46620000  1.0
  H  H27  1  0.81180000  0.46620000  0.43934000  1.0
  H  H28  1  0.37246000  0.56066000  0.02686000  1.0
  H  H29  1  0.34560000  0.97314000  0.53380000  1.0
  Mn  Mn30  1  0.53369000  0.42967000  0.74249000  1.0
  Mn  Mn31  1  0.79120000  0.25751000  0.68718000  1.0
  Mn  Mn32  1  0.10402000  0.31282000  0.57033000  1.0
  Mn  Mn33  1  0.46631000  0.57033000  0.25751000  1.0
  Mn  Mn34  1  0.20880000  0.74249000  0.31282000  1.0
  Mn  Mn35  1  0.89598000  0.68718000  0.42967000  1.0
  O  O36  1  0.66294000  0.34083000  0.59919000  1.0
  O  O37  1  0.06375000  0.40081000  0.74164000  1.0
  O  O38  1  0.32211000  0.25836000  0.65917000  1.0
  O  O39  1  0.33706000  0.65917000  0.40081000  1.0
  O  O40  1  0.93625000  0.59919000  0.25836000  1.0
  O  O41  1  0.67789000  0.74164000  0.34083000  1.0
  O  O42  1  0.88217000  0.35991000  0.51690000  1.0
  O  O43  1  0.36527000  0.48310000  0.84301000  1.0
  O  O44  1  0.52226000  0.15699000  0.64009000  1.0
  O  O45  1  0.11783000  0.64009000  0.48310000  1.0
  O  O46  1  0.63473000  0.51690000  0.15699000  1.0
  O  O47  1  0.47774000  0.84301000  0.35991000  1.0
  O  O48  1  0.36694000  0.42087000  0.61245000  1.0
  O  O49  1  0.75449000  0.38755000  0.80842000  1.0
  O  O50  1  0.94607000  0.19158000  0.57913000  1.0
  O  O51  1  0.63306000  0.57913000  0.38755000  1.0
  O  O52  1  0.24551000  0.61245000  0.19158000  1.0
  O  O53  1  0.05393000  0.80842000  0.42087000  1.0
