# generated using pymatgen
data_KMn5Mo3H3C23N22
_symmetry_space_group_name_H-M   'P 1'
_cell_length_a   7.52530000
_cell_length_b   34.22570000
_cell_length_c   19.52510000
_cell_angle_alpha   90.00000000
_cell_angle_beta   90.48300000
_cell_angle_gamma   90.00000000
_symmetry_Int_Tables_number   1
_chemical_formula_structural   KMn5Mo3H3C23N22
_chemical_formula_sum   'K4 Mn20 Mo12 H12 C92 N88'
_cell_volume   5028.67991239
_cell_formula_units_Z   4
loop_
 _symmetry_equiv_pos_site_id
 _symmetry_equiv_pos_as_xyz
  1  'x, y, z'
loop_
 _atom_site_type_symbol
 _atom_site_label
 _atom_site_symmetry_multiplicity
 _atom_site_fract_x
 _atom_site_fract_y
 _atom_site_fract_z
 _atom_site_occupancy
  K  K0  1  0.23390000  0.06502000  0.61666000  1.0
  K  K1  1  0.26610000  0.56502000  0.88334000  1.0
  K  K2  1  0.76610000  0.93498000  0.38334000  1.0
  K  K3  1  0.73390000  0.43498000  0.11666000  1.0
  Mn  Mn4  1  0.72523000  0.01873000  0.84851000  1.0
  Mn  Mn5  1  0.23126000  0.17401000  0.73505000  1.0
  Mn  Mn6  1  0.23427000  0.06695000  0.40093000  1.0
  Mn  Mn7  1  0.22846000  0.25913000  0.01060000  1.0
  Mn  Mn8  1  0.72480000  0.15044000  0.14971000  1.0
  Mn  Mn9  1  0.77477000  0.51873000  0.65149000  1.0
  Mn  Mn10  1  0.26874000  0.67401000  0.76495000  1.0
  Mn  Mn11  1  0.26573000  0.56695000  0.09907000  1.0
  Mn  Mn12  1  0.27154000  0.75913000  0.48940000  1.0
  Mn  Mn13  1  0.77520000  0.65044000  0.35029000  1.0
  Mn  Mn14  1  0.27477000  0.98127000  0.15149000  1.0
  Mn  Mn15  1  0.76874000  0.82599000  0.26495000  1.0
  Mn  Mn16  1  0.76573000  0.93305000  0.59907000  1.0
  Mn  Mn17  1  0.77154000  0.74087000  0.98940000  1.0
  Mn  Mn18  1  0.27520000  0.84956000  0.85029000  1.0
  Mn  Mn19  1  0.22523000  0.48127000  0.34851000  1.0
  Mn  Mn20  1  0.73126000  0.32599000  0.23505000  1.0
  Mn  Mn21  1  0.73427000  0.43305000  0.90093000  1.0
  Mn  Mn22  1  0.72846000  0.24087000  0.51060000  1.0
  Mn  Mn23  1  0.22480000  0.34956000  0.64971000  1.0
  Mo  Mo24  1  0.21270000  0.10086000  0.97577000  1.0
  Mo  Mo25  1  0.73721000  0.08835000  0.60054000  1.0
  Mo  Mo26  1  0.73161000  0.27931000  0.81197000  1.0
  Mo  Mo27  1  0.28730000  0.60086000  0.52423000  1.0
  Mo  Mo28  1  0.76279000  0.58835000  0.89946000  1.0
  Mo  Mo29  1  0.76839000  0.77931000  0.68803000  1.0
  Mo  Mo30  1  0.78730000  0.89914000  0.02423000  1.0
  Mo  Mo31  1  0.26279000  0.91165000  0.39946000  1.0
  Mo  Mo32  1  0.26839000  0.72069000  0.18803000  1.0
  Mo  Mo33  1  0.71270000  0.39914000  0.47577000  1.0
  Mo  Mo34  1  0.23721000  0.41165000  0.10054000  1.0
  Mo  Mo35  1  0.23161000  0.22069000  0.31197000  1.0
  H  H36  1  0.83620000  0.12670000  0.38980000  1.0
  H  H37  1  0.72130000  0.16270000  0.36780000  1.0
  H  H38  1  0.62940000  0.12480000  0.39490000  1.0
  H  H39  1  0.66380000  0.62670000  0.11020000  1.0
  H  H40  1  0.77870000  0.66270000  0.13220000  1.0
  H  H41  1  0.87060000  0.62480000  0.10510000  1.0
  H  H42  1  0.16380000  0.87330000  0.61020000  1.0
  H  H43  1  0.27870000  0.83730000  0.63220000  1.0
  H  H44  1  0.37060000  0.87520000  0.60510000  1.0
  H  H45  1  0.33620000  0.37330000  0.88980000  1.0
  H  H46  1  0.22130000  0.33730000  0.86780000  1.0
  H  H47  1  0.12940000  0.37520000  0.89490000  1.0
  C  C48  1  0.38710000  0.06195000  0.92210000  1.0
  C  C49  1  0.27480000  0.12778000  0.88150000  1.0
  C  C50  1  0.19140000  0.16316000  0.98950000  1.0
  C  C51  1  0.02890000  0.10990000  0.05630000  1.0
  C  C52  1  0.20090000  0.04601000  0.03110000  1.0
  C  C53  1  0.43230000  0.11250000  0.04350000  1.0
  C  C54  1  0.98930000  0.08197000  0.91510000  1.0
  C  C55  1  0.67970000  0.05860000  0.69410000  1.0
  C  C56  1  0.53500000  0.12019000  0.65180000  1.0
  C  C57  1  0.53970000  0.07536000  0.52450000  1.0
  C  C58  1  0.24240000  0.35256000  0.05990000  1.0
  C  C59  1  0.92520000  0.08551000  0.51850000  1.0
  C  C60  1  0.80630000  0.02787000  0.58930000  1.0
  C  C61  1  0.93290000  0.11332000  0.66700000  1.0
  C  C62  1  0.91550000  0.27492000  0.89590000  1.0
  C  C63  1  0.73940000  0.33967000  0.84950000  1.0
  C  C64  1  0.41280000  0.19580000  0.23960000  1.0
  C  C65  1  0.90470000  0.23273000  0.78660000  1.0
  C  C66  1  0.56380000  0.23445000  0.77580000  1.0
  C  C67  1  0.03680000  0.19399000  0.24460000  1.0
  C  C68  1  0.54360000  0.27086000  0.89460000  1.0
  C  C69  1  0.71510000  0.11985000  0.29900000  1.0
  C  C70  1  0.72620000  0.13480000  0.36940000  1.0
  C  C71  1  0.11290000  0.56195000  0.57790000  1.0
  C  C72  1  0.22520000  0.62778000  0.61850000  1.0
  C  C73  1  0.30860000  0.66316000  0.51050000  1.0
  C  C74  1  0.47110000  0.60990000  0.44370000  1.0
  C  C75  1  0.29910000  0.54601000  0.46890000  1.0
  C  C76  1  0.06770000  0.61250000  0.45650000  1.0
  C  C77  1  0.51070000  0.58197000  0.58490000  1.0
  C  C78  1  0.82030000  0.55860000  0.80590000  1.0
  C  C79  1  0.96500000  0.62019000  0.84820000  1.0
  C  C80  1  0.96030000  0.57536000  0.97550000  1.0
  C  C81  1  0.25760000  0.85256000  0.44010000  1.0
  C  C82  1  0.57480000  0.58551000  0.98150000  1.0
  C  C83  1  0.69370000  0.52787000  0.91070000  1.0
  C  C84  1  0.56710000  0.61332000  0.83300000  1.0
  C  C85  1  0.58450000  0.77492000  0.60410000  1.0
  C  C86  1  0.76060000  0.83967000  0.65050000  1.0
  C  C87  1  0.08720000  0.69580000  0.26040000  1.0
  C  C88  1  0.59530000  0.73273000  0.71340000  1.0
  C  C89  1  0.93620000  0.73445000  0.72420000  1.0
  C  C90  1  0.46320000  0.69399000  0.25540000  1.0
  C  C91  1  0.95640000  0.77086000  0.60540000  1.0
  C  C92  1  0.78490000  0.61985000  0.20100000  1.0
  C  C93  1  0.77380000  0.63480000  0.13060000  1.0
  C  C94  1  0.61290000  0.93805000  0.07790000  1.0
  C  C95  1  0.72520000  0.87222000  0.11850000  1.0
  C  C96  1  0.80860000  0.83684000  0.01050000  1.0
  C  C97  1  0.97110000  0.89010000  0.94370000  1.0
  C  C98  1  0.79910000  0.95399000  0.96890000  1.0
  C  C99  1  0.56770000  0.88750000  0.95650000  1.0
  C  C100  1  0.01070000  0.91803000  0.08490000  1.0
  C  C101  1  0.32030000  0.94140000  0.30590000  1.0
  C  C102  1  0.46500000  0.87981000  0.34820000  1.0
  C  C103  1  0.46030000  0.92464000  0.47550000  1.0
  C  C104  1  0.75760000  0.64744000  0.94010000  1.0
  C  C105  1  0.07480000  0.91449000  0.48150000  1.0
  C  C106  1  0.19370000  0.97213000  0.41070000  1.0
  C  C107  1  0.06710000  0.88668000  0.33300000  1.0
  C  C108  1  0.08450000  0.72508000  0.10410000  1.0
  C  C109  1  0.26060000  0.66033000  0.15050000  1.0
  C  C110  1  0.58720000  0.80420000  0.76040000  1.0
  C  C111  1  0.09530000  0.76727000  0.21340000  1.0
  C  C112  1  0.43620000  0.76555000  0.22420000  1.0
  C  C113  1  0.96320000  0.80601000  0.75540000  1.0
  C  C114  1  0.45640000  0.72914000  0.10540000  1.0
  C  C115  1  0.28490000  0.88015000  0.70100000  1.0
  C  C116  1  0.27380000  0.86520000  0.63060000  1.0
  C  C117  1  0.88710000  0.43805000  0.42210000  1.0
  C  C118  1  0.77480000  0.37222000  0.38150000  1.0
  C  C119  1  0.69140000  0.33684000  0.48950000  1.0
  C  C120  1  0.52890000  0.39010000  0.55630000  1.0
  C  C121  1  0.70090000  0.45399000  0.53110000  1.0
  C  C122  1  0.93230000  0.38750000  0.54350000  1.0
  C  C123  1  0.48930000  0.41803000  0.41510000  1.0
  C  C124  1  0.17970000  0.44140000  0.19410000  1.0
  C  C125  1  0.03500000  0.37981000  0.15180000  1.0
  C  C126  1  0.03970000  0.42464000  0.02450000  1.0
  C  C127  1  0.74240000  0.14744000  0.55990000  1.0
  C  C128  1  0.42520000  0.41449000  0.01850000  1.0
  C  C129  1  0.30630000  0.47213000  0.08930000  1.0
  C  C130  1  0.43290000  0.38668000  0.16700000  1.0
  C  C131  1  0.41550000  0.22508000  0.39590000  1.0
  C  C132  1  0.23940000  0.16033000  0.34950000  1.0
  C  C133  1  0.91280000  0.30420000  0.73960000  1.0
  C  C134  1  0.40470000  0.26727000  0.28660000  1.0
  C  C135  1  0.06380000  0.26555000  0.27580000  1.0
  C  C136  1  0.53680000  0.30601000  0.74460000  1.0
  C  C137  1  0.04360000  0.22914000  0.39460000  1.0
  C  C138  1  0.21510000  0.38015000  0.79900000  1.0
  C  C139  1  0.22620000  0.36520000  0.86940000  1.0
  N  N140  1  0.48200000  0.04137000  0.89250000  1.0
  N  N141  1  0.29460000  0.14145000  0.82818000  1.0
  N  N142  1  0.19360000  0.19611000  0.99840000  1.0
  N  N143  1  0.93170000  0.11490000  0.10103000  1.0
  N  N144  1  0.20340000  0.01782000  0.06360000  1.0
  N  N145  1  0.53970000  0.12010000  0.08350000  1.0
  N  N146  1  0.87490000  0.07047000  0.88140000  1.0
  N  N147  1  0.66350000  0.04446000  0.74740000  1.0
  N  N148  1  0.42500000  0.13657000  0.68008000  1.0
  N  N149  1  0.43540000  0.06972000  0.48150000  1.0
  N  N150  1  0.24700000  0.32029000  0.04260000  1.0
  N  N151  1  0.02470000  0.08226000  0.47420000  1.0
  N  N152  1  0.82910000  0.99506000  0.58190000  1.0
  N  N153  1  0.03000000  0.12880000  0.70410000  1.0
  N  N154  1  0.01150000  0.27235000  0.94220000  1.0
  N  N155  1  0.74850000  0.37143000  0.86820000  1.0
  N  N156  1  0.50840000  0.18179000  0.20090000  1.0
  N  N157  1  0.00770000  0.20897000  0.77250000  1.0
  N  N158  1  0.45970000  0.21162000  0.75770000  1.0
  N  N159  1  0.93380000  0.18105000  0.20670000  1.0
  N  N160  1  0.44580000  0.26561000  0.93832000  1.0
  N  N161  1  0.70850000  0.10946000  0.24320000  1.0
  N  N162  1  0.01800000  0.54137000  0.60750000  1.0
  N  N163  1  0.20540000  0.64145000  0.67182000  1.0
  N  N164  1  0.30640000  0.69611000  0.50160000  1.0
  N  N165  1  0.56830000  0.61490000  0.39897000  1.0
  N  N166  1  0.29660000  0.51782000  0.43640000  1.0
  N  N167  1  0.96030000  0.62010000  0.41650000  1.0
  N  N168  1  0.62510000  0.57047000  0.61860000  1.0
  N  N169  1  0.83650000  0.54446000  0.75260000  1.0
  N  N170  1  0.07500000  0.63657000  0.81992000  1.0
  N  N171  1  0.06460000  0.56972000  0.01850000  1.0
  N  N172  1  0.25300000  0.82029000  0.45740000  1.0
  N  N173  1  0.47530000  0.58226000  0.02580000  1.0
  N  N174  1  0.67090000  0.49506000  0.91810000  1.0
  N  N175  1  0.47000000  0.62880000  0.79590000  1.0
  N  N176  1  0.48850000  0.77235000  0.55780000  1.0
  N  N177  1  0.75150000  0.87143000  0.63180000  1.0
  N  N178  1  0.99160000  0.68179000  0.29910000  1.0
  N  N179  1  0.49230000  0.70897000  0.72750000  1.0
  N  N180  1  0.04030000  0.71162000  0.74230000  1.0
  N  N181  1  0.56620000  0.68105000  0.29330000  1.0
  N  N182  1  0.05420000  0.76561000  0.56168000  1.0
  N  N183  1  0.79150000  0.60946000  0.25680000  1.0
  N  N184  1  0.51800000  0.95863000  0.10750000  1.0
  N  N185  1  0.70540000  0.85855000  0.17182000  1.0
  N  N186  1  0.80640000  0.80389000  0.00160000  1.0
  N  N187  1  0.06830000  0.88510000  0.89897000  1.0
  N  N188  1  0.79660000  0.98218000  0.93640000  1.0
  N  N189  1  0.46030000  0.87990000  0.91650000  1.0
  N  N190  1  0.12510000  0.92953000  0.11860000  1.0
  N  N191  1  0.33650000  0.95554000  0.25260000  1.0
  N  N192  1  0.57500000  0.86343000  0.31992000  1.0
  N  N193  1  0.56460000  0.93028000  0.51850000  1.0
  N  N194  1  0.75300000  0.67971000  0.95740000  1.0
  N  N195  1  0.97530000  0.91774000  0.52580000  1.0
  N  N196  1  0.17090000  0.00494000  0.41810000  1.0
  N  N197  1  0.97000000  0.87120000  0.29590000  1.0
  N  N198  1  0.98850000  0.72765000  0.05780000  1.0
  N  N199  1  0.25150000  0.62857000  0.13180000  1.0
  N  N200  1  0.49160000  0.81821000  0.79910000  1.0
  N  N201  1  0.99230000  0.79103000  0.22750000  1.0
  N  N202  1  0.54030000  0.78838000  0.24230000  1.0
  N  N203  1  0.06620000  0.81895000  0.79330000  1.0
  N  N204  1  0.55420000  0.73439000  0.06168000  1.0
  N  N205  1  0.29150000  0.89054000  0.75680000  1.0
  N  N206  1  0.98200000  0.45863000  0.39250000  1.0
  N  N207  1  0.79460000  0.35855000  0.32818000  1.0
  N  N208  1  0.69360000  0.30389000  0.49840000  1.0
  N  N209  1  0.43170000  0.38510000  0.60103000  1.0
  N  N210  1  0.70340000  0.48218000  0.56360000  1.0
  N  N211  1  0.03970000  0.37990000  0.58350000  1.0
  N  N212  1  0.37490000  0.42953000  0.38140000  1.0
  N  N213  1  0.16350000  0.45554000  0.24740000  1.0
  N  N214  1  0.92500000  0.36343000  0.18008000  1.0
  N  N215  1  0.93540000  0.43028000  0.98150000  1.0
  N  N216  1  0.74700000  0.17971000  0.54260000  1.0
  N  N217  1  0.52470000  0.41774000  0.97420000  1.0
  N  N218  1  0.32910000  0.50494000  0.08190000  1.0
  N  N219  1  0.53000000  0.37120000  0.20410000  1.0
  N  N220  1  0.51150000  0.22765000  0.44220000  1.0
  N  N221  1  0.24850000  0.12857000  0.36820000  1.0
  N  N222  1  0.00840000  0.31821000  0.70090000  1.0
  N  N223  1  0.50770000  0.29103000  0.27250000  1.0
  N  N224  1  0.95970000  0.28838000  0.25770000  1.0
  N  N225  1  0.43380000  0.31895000  0.70670000  1.0
  N  N226  1  0.94580000  0.23439000  0.43832000  1.0
  N  N227  1  0.20850000  0.39054000  0.74320000  1.0
