# generated using pymatgen
data_ZnH16C23NO4
_symmetry_space_group_name_H-M   'P 1'
_cell_length_a   14.05600000
_cell_length_b   17.91500000
_cell_length_c   17.91700000
_cell_angle_alpha   100.31200000
_cell_angle_beta   91.95900000
_cell_angle_gamma   91.88900000
_symmetry_Int_Tables_number   1
_chemical_formula_structural   ZnH16C23NO4
_chemical_formula_sum   'Zn6 H96 C138 N6 O24'
_cell_volume   4432.76224075
_cell_formula_units_Z   6
loop_
 _symmetry_equiv_pos_site_id
 _symmetry_equiv_pos_as_xyz
  1  'x, y, z'
loop_
 _atom_site_type_symbol
 _atom_site_label
 _atom_site_symmetry_multiplicity
 _atom_site_fract_x
 _atom_site_fract_y
 _atom_site_fract_z
 _atom_site_occupancy
  Zn  Zn0  1  0.10066000  0.09029000  0.91865000  1
  Zn  Zn1  1  0.89933000  0.08141000  0.90968000  1
  Zn  Zn2  1  0.41677000  0.29387000  0.45975000  1
  Zn  Zn3  1  0.21327000  0.28365000  0.45036000  1
  Zn  Zn4  1  0.58320000  0.54029000  0.70619000  1
  Zn  Zn5  1  0.78672000  0.54963000  0.71670000  1
  H  H6  1  0.84954000  0.31929000  0.88841000  1
  H  H7  1  0.14831000  0.33205000  0.94923000  1
  H  H8  1  0.24031000  0.44633000  0.96274000  1
  H  H9  1  0.20590000  0.50377000  0.89569000  1
  H  H10  1  0.17829000  0.53148000  0.99181000  1
  H  H11  1  0.85648000  0.45706000  0.87979000  1
  H  H12  1  0.85267000  0.69317000  0.88287000  1
  H  H13  1  0.24272000  0.75117000  0.93296000  1
  H  H14  1  0.18529000  0.70103000  0.99693000  1
  H  H15  1  0.19220000  0.65721000  0.90146000  1
  H  H16  1  0.14688000  0.85907000  0.92610000  1
  H  H17  1  0.84460000  0.83245000  0.88340000  1
  H  H18  1  0.25042000  0.10977000  0.80817000  1
  H  H19  1  0.25841000  0.06662000  0.02724000  1
  H  H20  1  0.43672000  0.06074000  0.03016000  1
  H  H21  1  0.42849000  0.11101000  0.80302000  1
  H  H22  1  0.15047000  0.11150000  0.68081000  1
  H  H23  1  0.85169000  0.05088000  0.66776000  1
  H  H24  1  0.75975000  0.03740000  0.55340000  1
  H  H25  1  0.79415000  0.10435000  0.49594000  1
  H  H26  1  0.82178000  0.00000000  0.46838000  1
  H  H27  1  0.14358000  0.12004000  0.54304000  1
  H  H28  1  0.14744000  0.11722000  0.30690000  1
  H  H29  1  0.75746000  0.06692000  0.24863000  1
  H  H30  1  0.81500000  0.00298000  0.29884000  1
  H  H31  1  0.80795000  0.09847000  0.34260000  1
  H  H32  1  0.85326000  0.07377000  0.14082000  1
  H  H33  1  0.15548000  0.11662000  0.16770000  1
  H  H34  1  0.74928000  0.19178000  0.88985000  1
  H  H35  1  0.74183000  0.97293000  0.93368000  1
  H  H36  1  0.56355000  0.97000000  0.93963000  1
  H  H37  1  0.57121000  0.19689000  0.88866000  1
  H  H38  1  0.46750000  0.29207000  0.22677000  1
  H  H39  1  0.16351000  0.26128000  0.20271000  1
  H  H40  1  0.17116000  0.26017000  0.06320000  1
  H  H41  1  0.50455000  0.34148000  0.04474000  1
  H  H42  1  0.56207000  0.30843000  0.12212000  1
  H  H43  1  0.52132000  0.24366000  0.03916000  1
  H  H44  1  0.53263000  0.31488000  0.87026000  1
  H  H45  1  0.52731000  0.39925000  0.83173000  1
  H  H46  1  0.46678000  0.39059000  0.91606000  1
  H  H47  1  0.17878000  0.24298000  0.82446000  1
  H  H48  1  0.17283000  0.24804000  0.68606000  1
  H  H49  1  0.45334000  0.35520000  0.71010000  1
  H  H50  1  0.47480000  0.05801000  0.46850000  1
  H  H51  1  0.17272000  0.03871000  0.42114000  1
  H  H52  1  0.17338000  0.90153000  0.42907000  1
  H  H53  1  0.56329000  0.95279000  0.49122000  1
  H  H54  1  0.49961000  0.88302000  0.53140000  1
  H  H55  1  0.52084000  0.86562000  0.43382000  1
  H  H56  1  0.17504000  0.65717000  0.41990000  1
  H  H57  1  0.52613000  0.70928000  0.48505000  1
  H  H58  1  0.46566000  0.74866000  0.56654000  1
  H  H59  1  0.53093000  0.66469000  0.56610000  1
  H  H60  1  0.45537000  0.54409000  0.52550000  1
  H  H61  1  0.17243000  0.51810000  0.42287000  1
  H  H62  1  0.55703000  0.21689000  0.35756000  1
  H  H63  1  0.58349000  0.37793000  0.55518000  1
  H  H64  1  0.76014000  0.37764000  0.55581000  1
  H  H65  1  0.73395000  0.21025000  0.34890000  1
  H  H66  1  0.88784000  0.29273000  0.57306000  1
  H  H67  1  0.87727000  0.28365000  0.32999000  1
  H  H68  1  0.05479000  0.27834000  0.33451000  1
  H  H69  1  0.06546000  0.28731000  0.56687000  1
  H  H70  1  0.53238000  0.77333000  0.70814000  1
  H  H71  1  0.83637000  0.79723000  0.73904000  1
  H  H72  1  0.82864000  0.93675000  0.74011000  1
  H  H73  1  0.49525000  0.95532000  0.65855000  1
  H  H74  1  0.43776000  0.87801000  0.69159000  1
  H  H75  1  0.47844000  0.96100000  0.75635000  1
  H  H76  1  0.46719000  0.13018000  0.68527000  1
  H  H77  1  0.47239000  0.16851000  0.60079000  1
  H  H78  1  0.53280000  0.08409000  0.60957000  1
  H  H79  1  0.82123000  0.17534000  0.75683000  1
  H  H80  1  0.82722000  0.31377000  0.75180000  1
  H  H81  1  0.54652000  0.29011000  0.64479000  1
  H  H82  1  0.52521000  0.53154000  0.94200000  1
  H  H83  1  0.82731000  0.57862000  0.96160000  1
  H  H84  1  0.82663000  0.57077000  0.09877000  1
  H  H85  1  0.43672000  0.50897000  0.04723000  1
  H  H86  1  0.50036000  0.46877000  0.11712000  1
  H  H87  1  0.47917000  0.56643000  0.13437000  1
  H  H88  1  0.82474000  0.58050000  0.34322000  1
  H  H89  1  0.47372000  0.51519000  0.29077000  1
  H  H90  1  0.53434000  0.43371000  0.25145000  1
  H  H91  1  0.46912000  0.43414000  0.33537000  1
  H  H92  1  0.54461000  0.47470000  0.45598000  1
  H  H93  1  0.82736000  0.57750000  0.48220000  1
  H  H94  1  0.44288000  0.64252000  0.78315000  1
  H  H95  1  0.41655000  0.44483000  0.62220000  1
  H  H96  1  0.23990000  0.44417000  0.62240000  1
  H  H97  1  0.26597000  0.65111000  0.78978000  1
  H  H98  1  0.11236000  0.42690000  0.70727000  1
  H  H99  1  0.12248000  0.67000000  0.71650000  1
  H  H100  1  0.94499000  0.66545000  0.72192000  1
  H  H101  1  0.93476000  0.43306000  0.71282000  1
  C  C102  1  0.99663000  0.23397000  0.92188000  1
  C  C103  1  0.99871000  0.31722000  0.91946000  1
  C  C104  1  0.91621000  0.35265000  0.90010000  1
  C  C105  1  0.08467000  0.36019000  0.93451000  1
  C  C106  1  0.09068000  0.43727000  0.93094000  1
  C  C107  1  0.18389000  0.48183000  0.94636000  1
  C  C108  1  0.91989000  0.42925000  0.89573000  1
  C  C109  1  0.00643000  0.47268000  0.91174000  1
  C  C110  1  0.00813000  0.55124000  0.90958000  1
  C  C111  1  0.00739000  0.61939000  0.90922000  1
  C  C112  1  0.00447000  0.69801000  0.90795000  1
  C  C113  1  0.91660000  0.73016000  0.89380000  1
  C  C114  1  0.08918000  0.74497000  0.92054000  1
  C  C115  1  0.18250000  0.71217000  0.93840000  1
  C  C116  1  0.08296000  0.82189000  0.91740000  1
  C  C117  1  0.91229000  0.80739000  0.89339000  1
  C  C118  1  0.99555000  0.85404000  0.90470000  1
  C  C119  1  0.99144000  0.93762000  0.90444000  1
  C  C120  1  0.29509000  0.10000000  0.85605000  1
  C  C121  1  0.29955000  0.07451000  0.97859000  1
  C  C122  1  0.39827000  0.07149000  0.97958000  1
  C  C123  1  0.39375000  0.10012000  0.85364000  1
  C  C124  1  0.44739000  0.08497000  0.91617000  1
  C  C125  1  0.00334000  0.07819000  0.76600000  1
  C  C126  1  0.00128000  0.08058000  0.68275000  1
  C  C127  1  0.08380000  0.09985000  0.64740000  1
  C  C128  1  0.91534000  0.06556000  0.63969000  1
  C  C129  1  0.90938000  0.06909000  0.56260000  1
  C  C130  1  0.81617000  0.05369000  0.51797000  1
  C  C131  1  0.08016000  0.10417000  0.57078000  1
  C  C132  1  0.99363000  0.08822000  0.52728000  1
  C  C133  1  0.99196000  0.09038000  0.44873000  1
  C  C134  1  0.99276000  0.09077000  0.38059000  1
  C  C135  1  0.99568000  0.09204000  0.30199000  1
  C  C136  1  0.08352000  0.10621000  0.26992000  1
  C  C137  1  0.91098000  0.07940000  0.25497000  1
  C  C138  1  0.81769000  0.06151000  0.28769000  1
  C  C139  1  0.91718000  0.08242000  0.17805000  1
  C  C140  1  0.08780000  0.10663000  0.19269000  1
  C  C141  1  0.00455000  0.09525000  0.14597000  1
  C  C142  1  0.00862000  0.09551000  0.06240000  1
  C  C143  1  0.70474000  0.14395000  0.89979000  1
  C  C144  1  0.70059000  0.02154000  0.92565000  1
  C  C145  1  0.60188000  0.02055000  0.92871000  1
  C  C146  1  0.60607000  0.14634000  0.89970000  1
  C  C147  1  0.55260000  0.08388000  0.91505000  1
  C  C148  1  0.31145000  0.27890000  0.30684000  1
  C  C149  1  0.31528000  0.27714000  0.22304000  1
  C  C150  1  0.40323000  0.28547000  0.19006000  1
  C  C151  1  0.23150000  0.26826000  0.17700000  1
  C  C152  1  0.23562000  0.26831000  0.09976000  1
  C  C153  1  0.40972000  0.28680000  0.11287000  1
  C  C154  1  0.50441000  0.29580000  0.07830000  1
  C  C155  1  0.32402000  0.27892000  0.06710000  1
  C  C156  1  0.32595000  0.28327000  0.98919000  1
  C  C157  1  0.32421000  0.28932000  0.92231000  1
  C  C158  1  0.32051000  0.29520000  0.84466000  1
  C  C159  1  0.39874000  0.32847000  0.81247000  1
  C  C160  1  0.48573000  0.36039000  0.85999000  1
  C  C161  1  0.23859000  0.26749000  0.79869000  1
  C  C162  1  0.23528000  0.27033000  0.72172000  1
  C  C163  1  0.39354000  0.32985000  0.73493000  1
  C  C164  1  0.31385000  0.29999000  0.68875000  1
  C  C165  1  0.31382000  0.29822000  0.60486000  1
  C  C166  1  0.32312000  0.14071000  0.44493000  1
  C  C167  1  0.32398000  0.05708000  0.44529000  1
  C  C168  1  0.40925000  0.02280000  0.46015000  1
  C  C169  1  0.23894000  0.01260000  0.43333000  1
  C  C170  1  0.23943000  0.93611000  0.43777000  1
  C  C171  1  0.41179000  0.94610000  0.46528000  1
  C  C172  1  0.50381000  0.91048000  0.48141000  1
  C  C173  1  0.32477000  0.90180000  0.45453000  1
  C  C174  1  0.32272000  0.82403000  0.46053000  1
  C  C175  1  0.31943000  0.75680000  0.46559000  1
  C  C176  1  0.31742000  0.67870000  0.47030000  1
  C  C177  1  0.23620000  0.63172000  0.44304000  1
  C  C178  1  0.39745000  0.64660000  0.50150000  1
  C  C179  1  0.48464000  0.69463000  0.53183000  1
  C  C180  1  0.39411000  0.56877000  0.50182000  1
  C  C181  1  0.23459000  0.55445000  0.44448000  1
  C  C182  1  0.31464000  0.52194000  0.47266000  1
  C  C183  1  0.31641000  0.43791000  0.46975000  1
  C  C184  1  0.60536000  0.25132000  0.39992000  1
  C  C185  1  0.61948000  0.34079000  0.51103000  1
  C  C186  1  0.71835000  0.34010000  0.51118000  1
  C  C187  1  0.70357000  0.24835000  0.39550000  1
  C  C188  1  0.76243000  0.29275000  0.45270000  1
  C  C189  1  0.86731000  0.28940000  0.45171000  1
  C  C190  1  0.92191000  0.29077000  0.51904000  1
  C  C191  1  0.91573000  0.28435000  0.38395000  1
  C  C192  1  0.01444000  0.28186000  0.38578000  1
  C  C193  1  0.02029000  0.28736000  0.51625000  1
  C  C194  1  0.68849000  0.69317000  0.72129000  1
  C  C195  1  0.68460000  0.77698000  0.72310000  1
  C  C196  1  0.59663000  0.81001000  0.71476000  1
  C  C197  1  0.76836000  0.82295000  0.73203000  1
  C  C198  1  0.76420000  0.90023000  0.73195000  1
  C  C199  1  0.59010000  0.88720000  0.71330000  1
  C  C200  1  0.49539000  0.92177000  0.70426000  1
  C  C201  1  0.67578000  0.93293000  0.72126000  1
  C  C202  1  0.67385000  0.01084000  0.71679000  1
  C  C203  1  0.67565000  0.07770000  0.71064000  1
  C  C204  1  0.67938000  0.15534000  0.70470000  1
  C  C205  1  0.60110000  0.18765000  0.67150000  1
  C  C206  1  0.51400000  0.14025000  0.63968000  1
  C  C207  1  0.76139000  0.20120000  0.73236000  1
  C  C208  1  0.76473000  0.27818000  0.72953000  1
  C  C209  1  0.60635000  0.26519000  0.67010000  1
  C  C210  1  0.68613000  0.31126000  0.69992000  1
  C  C211  1  0.68617000  0.39518000  0.70183000  1
  C  C212  1  0.67688000  0.55501000  0.85950000  1
  C  C213  1  0.67604000  0.55460000  0.94311000  1
  C  C214  1  0.59077000  0.53983000  0.97734000  1
  C  C215  1  0.76109000  0.56650000  0.98766000  1
  C  C216  1  0.76059000  0.56212000  0.06414000  1
  C  C217  1  0.58822000  0.53478000  0.05403000  1
  C  C218  1  0.49619000  0.51877000  0.08958000  1
  C  C219  1  0.67524000  0.54549000  0.09839000  1
  C  C220  1  0.67727000  0.53960000  0.17618000  1
  C  C221  1  0.68050000  0.53463000  0.24343000  1
  C  C222  1  0.68247000  0.53000000  0.32154000  1
  C  C223  1  0.76363000  0.55731000  0.36860000  1
  C  C224  1  0.60248000  0.49874000  0.35355000  1
  C  C225  1  0.51533000  0.46842000  0.30545000  1
  C  C226  1  0.60581000  0.49846000  0.43137000  1
  C  C227  1  0.76524000  0.55587000  0.44586000  1
  C  C228  1  0.68524000  0.52763000  0.47827000  1
  C  C229  1  0.68347000  0.53040000  0.56220000  1
  C  C230  1  0.39458000  0.60014000  0.74873000  1
  C  C231  1  0.38054000  0.48900000  0.65930000  1
  C  C232  1  0.28166000  0.48883000  0.65999000  1
  C  C233  1  0.29637000  0.60448000  0.75169000  1
  C  C234  1  0.23754000  0.54731000  0.70731000  1
  C  C235  1  0.13267000  0.54827000  0.71069000  1
  C  C236  1  0.07819000  0.48092000  0.70929000  1
  C  C237  1  0.08413000  0.61603000  0.71579000  1
  C  C238  1  0.98543000  0.61418000  0.71835000  1
  C  C239  1  0.97981000  0.48369000  0.71278000  1
  N  N240  1  0.24846000  0.08797000  0.91760000  1
  N  N241  1  0.75152000  0.08246000  0.91199000  1
  N  N242  1  0.56361000  0.29664000  0.45693000  1
  N  N243  1  0.06629000  0.28339000  0.45083000  1
  N  N244  1  0.43637000  0.54312000  0.70343000  1
  N  N245  1  0.93370000  0.54912000  0.71682000  1
  O  O246  1  0.07043000  0.97426000  0.90299000  1
  O  O247  1  0.90911000  0.96577000  0.90613000  1
  O  O248  1  0.91651000  0.19747000  0.90930000  1
  O  O249  1  0.07599000  0.20535000  0.93523000  1
  O  O250  1  0.92959000  0.09700000  0.02573000  1
  O  O251  1  0.09093000  0.09381000  0.03429000  1
  O  O252  1  0.08347000  0.09072000  0.80256000  1
  O  O253  1  0.92399000  0.06490000  0.79457000  1
  O  O254  1  0.39106000  0.28456000  0.34422000  1
  O  O255  1  0.22944000  0.27519000  0.33458000  1
  O  O256  1  0.39491000  0.30341000  0.57582000  1
  O  O257  1  0.23332000  0.29163000  0.56872000  1
  O  O258  1  0.40329000  0.17722000  0.45062000  1
  O  O259  1  0.24164000  0.16946000  0.44040000  1
  O  O260  1  0.39826000  0.40963000  0.47454000  1
  O  O261  1  0.23688000  0.40054000  0.46256000  1
  O  O262  1  0.60891000  0.65580000  0.71558000  1
  O  O263  1  0.77053000  0.66539000  0.72498000  1
  O  O264  1  0.60506000  0.42428000  0.69660000  1
  O  O265  1  0.76665000  0.43129000  0.70862000  1
  O  O266  1  0.59673000  0.54936000  0.82293000  1
  O  O267  1  0.75837000  0.55958000  0.83080000  1
  O  O268  1  0.60161000  0.52558000  0.59045000  1
  O  O269  1  0.76299000  0.53746000  0.59971000  1
