# generated using pymatgen
data_Ba(HC)20
_symmetry_space_group_name_H-M   'P 1'
_cell_length_a   13.46080000
_cell_length_b   13.47070000
_cell_length_c   13.50760000
_cell_angle_alpha   90.00000000
_cell_angle_beta   90.00000000
_cell_angle_gamma   90.00000000
_symmetry_Int_Tables_number   1
_chemical_formula_structural   Ba(HC)20
_chemical_formula_sum   'Ba8 H160 C160'
_cell_volume   2449.28446119
_cell_formula_units_Z   8
loop_
 _symmetry_equiv_pos_site_id
 _symmetry_equiv_pos_as_xyz
  1  'x, y, z'
loop_
 _atom_site_type_symbol
 _atom_site_label
 _atom_site_symmetry_multiplicity
 _atom_site_fract_x
 _atom_site_fract_y
 _atom_site_fract_z
 _atom_site_occupancy
  Ba  Ba0  1  0.12500000  0.12500000  0.12500000  1
  Ba  Ba1  1  0.12500000  0.62500000  0.62500000  1
  Ba  Ba2  1  0.62500000  0.12500000  0.62500000  1
  Ba  Ba3  1  0.62500000  0.62500000  0.12500000  1
  Ba  Ba4  1  0.87500000  0.87500000  0.87500000  1
  Ba  Ba5  1  0.87500000  0.37500000  0.37500000  1
  Ba  Ba6  1  0.37500000  0.87500000  0.37500000  1
  Ba  Ba7  1  0.37500000  0.37500000  0.87500000  1
  H  H8  1  0.12560000  0.90850000  0.96740000  1
  H  H9  1  0.00720000  0.88270000  0.10920000  1
  H  H10  1  0.12190000  0.98230000  0.89780000  1
  H  H11  1  0.08330000  0.87310000  0.04400000  1
  H  H12  1  0.06970000  0.05940000  0.87270000  1
  H  H13  1  0.12560000  0.40850000  0.46740000  1
  H  H14  1  0.00720000  0.38270000  0.60920000  1
  H  H15  1  0.12190000  0.48230000  0.39780000  1
  H  H16  1  0.08330000  0.37310000  0.54400000  1
  H  H17  1  0.06970000  0.55940000  0.37270000  1
  H  H18  1  0.62560000  0.90850000  0.46740000  1
  H  H19  1  0.50720000  0.88270000  0.60920000  1
  H  H20  1  0.62190000  0.98230000  0.39780000  1
  H  H21  1  0.58330000  0.87310000  0.54400000  1
  H  H22  1  0.56970000  0.05940000  0.37270000  1
  H  H23  1  0.62560000  0.40850000  0.96740000  1
  H  H24  1  0.50720000  0.38270000  0.10920000  1
  H  H25  1  0.62190000  0.48230000  0.89780000  1
  H  H26  1  0.58330000  0.37310000  0.04400000  1
  H  H27  1  0.56970000  0.55940000  0.87270000  1
  H  H28  1  0.62440000  0.84150000  0.96740000  1
  H  H29  1  0.74280000  0.86730000  0.10920000  1
  H  H30  1  0.62810000  0.76770000  0.89780000  1
  H  H31  1  0.66666667  0.87690000  0.04400000  1
  H  H32  1  0.68030000  0.69060000  0.87270000  1
  H  H33  1  0.62440000  0.34150000  0.46740000  1
  H  H34  1  0.74280000  0.36730000  0.60920000  1
  H  H35  1  0.62810000  0.26770000  0.39780000  1
  H  H36  1  0.66666667  0.37690000  0.54400000  1
  H  H37  1  0.68030000  0.19060000  0.37270000  1
  H  H38  1  0.12440000  0.84150000  0.46740000  1
  H  H39  1  0.24280000  0.86730000  0.60920000  1
  H  H40  1  0.12810000  0.76770000  0.39780000  1
  H  H41  1  0.16670000  0.87690000  0.54400000  1
  H  H42  1  0.18030000  0.69060000  0.37270000  1
  H  H43  1  0.12440000  0.34150000  0.96740000  1
  H  H44  1  0.24280000  0.36730000  0.10920000  1
  H  H45  1  0.12810000  0.26770000  0.89780000  1
  H  H46  1  0.16670000  0.37690000  0.04400000  1
  H  H47  1  0.18030000  0.19060000  0.87270000  1
  H  H48  1  0.62440000  0.90850000  0.78260000  1
  H  H49  1  0.74280000  0.88270000  0.64080000  1
  H  H50  1  0.62810000  0.98230000  0.85220000  1
  H  H51  1  0.66666667  0.87310000  0.70600000  1
  H  H52  1  0.68030000  0.05940000  0.87730000  1
  H  H53  1  0.62440000  0.40850000  0.28260000  1
  H  H54  1  0.74280000  0.38270000  0.14080000  1
  H  H55  1  0.62810000  0.48230000  0.35220000  1
  H  H56  1  0.66666667  0.37310000  0.20600000  1
  H  H57  1  0.68030000  0.55940000  0.37730000  1
  H  H58  1  0.12440000  0.90850000  0.28260000  1
  H  H59  1  0.24280000  0.88270000  0.14080000  1
  H  H60  1  0.12810000  0.98230000  0.35220000  1
  H  H61  1  0.16670000  0.87310000  0.20600000  1
  H  H62  1  0.18030000  0.05940000  0.37730000  1
  H  H63  1  0.12440000  0.40850000  0.78260000  1
  H  H64  1  0.24280000  0.38270000  0.64080000  1
  H  H65  1  0.12810000  0.48230000  0.85220000  1
  H  H66  1  0.16670000  0.37310000  0.70600000  1
  H  H67  1  0.18030000  0.55940000  0.87730000  1
  H  H68  1  0.12560000  0.84150000  0.78260000  1
  H  H69  1  0.00720000  0.86730000  0.64080000  1
  H  H70  1  0.12190000  0.76770000  0.85220000  1
  H  H71  1  0.08330000  0.87690000  0.70600000  1
  H  H72  1  0.06970000  0.69060000  0.87730000  1
  H  H73  1  0.12560000  0.34150000  0.28260000  1
  H  H74  1  0.00720000  0.36730000  0.14080000  1
  H  H75  1  0.12190000  0.26770000  0.35220000  1
  H  H76  1  0.08330000  0.37690000  0.20600000  1
  H  H77  1  0.06970000  0.19060000  0.37730000  1
  H  H78  1  0.62560000  0.84150000  0.28260000  1
  H  H79  1  0.50720000  0.86730000  0.14080000  1
  H  H80  1  0.62190000  0.76770000  0.35220000  1
  H  H81  1  0.58330000  0.87690000  0.20600000  1
  H  H82  1  0.56970000  0.69060000  0.37730000  1
  H  H83  1  0.62560000  0.34150000  0.78260000  1
  H  H84  1  0.50720000  0.36730000  0.64080000  1
  H  H85  1  0.62190000  0.26770000  0.85220000  1
  H  H86  1  0.58330000  0.37690000  0.70600000  1
  H  H87  1  0.56970000  0.19060000  0.87730000  1
  H  H88  1  0.87440000  0.09150000  0.03260000  1
  H  H89  1  0.99280000  0.11730000  0.89080000  1
  H  H90  1  0.87810000  0.01770000  0.10220000  1
  H  H91  1  0.91670000  0.12690000  0.95600000  1
  H  H92  1  0.93030000  0.94060000  0.12730000  1
  H  H93  1  0.87440000  0.59150000  0.53260000  1
  H  H94  1  0.99280000  0.61730000  0.39080000  1
  H  H95  1  0.87810000  0.51770000  0.60220000  1
  H  H96  1  0.91670000  0.62690000  0.45600000  1
  H  H97  1  0.93030000  0.44060000  0.62730000  1
  H  H98  1  0.37440000  0.09150000  0.53260000  1
  H  H99  1  0.49280000  0.11730000  0.39080000  1
  H  H100  1  0.37810000  0.01770000  0.60220000  1
  H  H101  1  0.41670000  0.12690000  0.45600000  1
  H  H102  1  0.43030000  0.94060000  0.62730000  1
  H  H103  1  0.37440000  0.59150000  0.03260000  1
  H  H104  1  0.49280000  0.61730000  0.89080000  1
  H  H105  1  0.37810000  0.51770000  0.10220000  1
  H  H106  1  0.41670000  0.62690000  0.95600000  1
  H  H107  1  0.43030000  0.44060000  0.12730000  1
  H  H108  1  0.37560000  0.15850000  0.03260000  1
  H  H109  1  0.25720000  0.13270000  0.89080000  1
  H  H110  1  0.37190000  0.23230000  0.10220000  1
  H  H111  1  0.33333333  0.12310000  0.95600000  1
  H  H112  1  0.31970000  0.30940000  0.12730000  1
  H  H113  1  0.37560000  0.65850000  0.53260000  1
  H  H114  1  0.25720000  0.63270000  0.39080000  1
  H  H115  1  0.37190000  0.73230000  0.60220000  1
  H  H116  1  0.33333333  0.62310000  0.45600000  1
  H  H117  1  0.31970000  0.80940000  0.62730000  1
  H  H118  1  0.87560000  0.15850000  0.53260000  1
  H  H119  1  0.75720000  0.13270000  0.39080000  1
  H  H120  1  0.87190000  0.23230000  0.60220000  1
  H  H121  1  0.83330000  0.12310000  0.45600000  1
  H  H122  1  0.81970000  0.30940000  0.62730000  1
  H  H123  1  0.87560000  0.65850000  0.03260000  1
  H  H124  1  0.75720000  0.63270000  0.89080000  1
  H  H125  1  0.87190000  0.73230000  0.10220000  1
  H  H126  1  0.83330000  0.62310000  0.95600000  1
  H  H127  1  0.81970000  0.80940000  0.12730000  1
  H  H128  1  0.37560000  0.09150000  0.21740000  1
  H  H129  1  0.25720000  0.11730000  0.35920000  1
  H  H130  1  0.37190000  0.01770000  0.14780000  1
  H  H131  1  0.33333333  0.12690000  0.29400000  1
  H  H132  1  0.31970000  0.94060000  0.12270000  1
  H  H133  1  0.37560000  0.59150000  0.71740000  1
  H  H134  1  0.25720000  0.61730000  0.85920000  1
  H  H135  1  0.37190000  0.51770000  0.64780000  1
  H  H136  1  0.33333333  0.62690000  0.79400000  1
  H  H137  1  0.31970000  0.44060000  0.62270000  1
  H  H138  1  0.87560000  0.09150000  0.71740000  1
  H  H139  1  0.75720000  0.11730000  0.85920000  1
  H  H140  1  0.87190000  0.01770000  0.64780000  1
  H  H141  1  0.83330000  0.12690000  0.79400000  1
  H  H142  1  0.81970000  0.94060000  0.62270000  1
  H  H143  1  0.87560000  0.59150000  0.21740000  1
  H  H144  1  0.75720000  0.61730000  0.35920000  1
  H  H145  1  0.87190000  0.51770000  0.14780000  1
  H  H146  1  0.83330000  0.62690000  0.29400000  1
  H  H147  1  0.81970000  0.44060000  0.12270000  1
  H  H148  1  0.87440000  0.15850000  0.21740000  1
  H  H149  1  0.99280000  0.13270000  0.35920000  1
  H  H150  1  0.87810000  0.23230000  0.14780000  1
  H  H151  1  0.91670000  0.12310000  0.29400000  1
  H  H152  1  0.93030000  0.30940000  0.12270000  1
  H  H153  1  0.87440000  0.65850000  0.71740000  1
  H  H154  1  0.99280000  0.63270000  0.85920000  1
  H  H155  1  0.87810000  0.73230000  0.64780000  1
  H  H156  1  0.91670000  0.62310000  0.79400000  1
  H  H157  1  0.93030000  0.80940000  0.62270000  1
  H  H158  1  0.37440000  0.15850000  0.71740000  1
  H  H159  1  0.49280000  0.13270000  0.85920000  1
  H  H160  1  0.37810000  0.23230000  0.64780000  1
  H  H161  1  0.41670000  0.12310000  0.79400000  1
  H  H162  1  0.43030000  0.30940000  0.62270000  1
  H  H163  1  0.37440000  0.65850000  0.21740000  1
  H  H164  1  0.49280000  0.63270000  0.35920000  1
  H  H165  1  0.37810000  0.73230000  0.14780000  1
  H  H166  1  0.41670000  0.62310000  0.29400000  1
  H  H167  1  0.43030000  0.80940000  0.12270000  1
  C  C168  1  0.06960000  0.94870000  0.98250000  1
  C  C169  1  0.00380000  0.93440000  0.06140000  1
  C  C170  1  0.06810000  0.99060000  0.94250000  1
  C  C171  1  0.04660000  0.92980000  0.02380000  1
  C  C172  1  0.03860000  0.03260000  0.92990000  1
  C  C173  1  0.06960000  0.44870000  0.48250000  1
  C  C174  1  0.00380000  0.43440000  0.56140000  1
  C  C175  1  0.06810000  0.49060000  0.44250000  1
  C  C176  1  0.04660000  0.42980000  0.52380000  1
  C  C177  1  0.03860000  0.53260000  0.42990000  1
  C  C178  1  0.56960000  0.94870000  0.48250000  1
  C  C179  1  0.50380000  0.93440000  0.56140000  1
  C  C180  1  0.56810000  0.99060000  0.44250000  1
  C  C181  1  0.54660000  0.92980000  0.52380000  1
  C  C182  1  0.53860000  0.03260000  0.42990000  1
  C  C183  1  0.56960000  0.44870000  0.98250000  1
  C  C184  1  0.50380000  0.43440000  0.06140000  1
  C  C185  1  0.56810000  0.49060000  0.94250000  1
  C  C186  1  0.54660000  0.42980000  0.02380000  1
  C  C187  1  0.53860000  0.53260000  0.92990000  1
  C  C188  1  0.68040000  0.80130000  0.98250000  1
  C  C189  1  0.74620000  0.81560000  0.06140000  1
  C  C190  1  0.68190000  0.75940000  0.94250000  1
  C  C191  1  0.70340000  0.82020000  0.02380000  1
  C  C192  1  0.71140000  0.71740000  0.92990000  1
  C  C193  1  0.68040000  0.30130000  0.48250000  1
  C  C194  1  0.74620000  0.31560000  0.56140000  1
  C  C195  1  0.68190000  0.25940000  0.44250000  1
  C  C196  1  0.70340000  0.32020000  0.52380000  1
  C  C197  1  0.71140000  0.21740000  0.42990000  1
  C  C198  1  0.18040000  0.80130000  0.48250000  1
  C  C199  1  0.24620000  0.81560000  0.56140000  1
  C  C200  1  0.18190000  0.75940000  0.44250000  1
  C  C201  1  0.20340000  0.82020000  0.52380000  1
  C  C202  1  0.21140000  0.71740000  0.42990000  1
  C  C203  1  0.18040000  0.30130000  0.98250000  1
  C  C204  1  0.24620000  0.31560000  0.06140000  1
  C  C205  1  0.18190000  0.25940000  0.94250000  1
  C  C206  1  0.20340000  0.32020000  0.02380000  1
  C  C207  1  0.21140000  0.21740000  0.92990000  1
  C  C208  1  0.68040000  0.94870000  0.76750000  1
  C  C209  1  0.74620000  0.93440000  0.68860000  1
  C  C210  1  0.68190000  0.99060000  0.80750000  1
  C  C211  1  0.70340000  0.92980000  0.72620000  1
  C  C212  1  0.71140000  0.03260000  0.82010000  1
  C  C213  1  0.68040000  0.44870000  0.26750000  1
  C  C214  1  0.74620000  0.43440000  0.18860000  1
  C  C215  1  0.68190000  0.49060000  0.30750000  1
  C  C216  1  0.70340000  0.42980000  0.22620000  1
  C  C217  1  0.71140000  0.53260000  0.32010000  1
  C  C218  1  0.18040000  0.94870000  0.26750000  1
  C  C219  1  0.24620000  0.93440000  0.18860000  1
  C  C220  1  0.18190000  0.99060000  0.30750000  1
  C  C221  1  0.20340000  0.92980000  0.22620000  1
  C  C222  1  0.21140000  0.03260000  0.32010000  1
  C  C223  1  0.18040000  0.44870000  0.76750000  1
  C  C224  1  0.24620000  0.43440000  0.68860000  1
  C  C225  1  0.18190000  0.49060000  0.80750000  1
  C  C226  1  0.20340000  0.42980000  0.72620000  1
  C  C227  1  0.21140000  0.53260000  0.82010000  1
  C  C228  1  0.06960000  0.80130000  0.76750000  1
  C  C229  1  0.00380000  0.81560000  0.68860000  1
  C  C230  1  0.06810000  0.75940000  0.80750000  1
  C  C231  1  0.04660000  0.82020000  0.72620000  1
  C  C232  1  0.03860000  0.71740000  0.82010000  1
  C  C233  1  0.06960000  0.30130000  0.26750000  1
  C  C234  1  0.00380000  0.31560000  0.18860000  1
  C  C235  1  0.06810000  0.25940000  0.30750000  1
  C  C236  1  0.04660000  0.32020000  0.22620000  1
  C  C237  1  0.03860000  0.21740000  0.32010000  1
  C  C238  1  0.56960000  0.80130000  0.26750000  1
  C  C239  1  0.50380000  0.81560000  0.18860000  1
  C  C240  1  0.56810000  0.75940000  0.30750000  1
  C  C241  1  0.54660000  0.82020000  0.22620000  1
  C  C242  1  0.53860000  0.71740000  0.32010000  1
  C  C243  1  0.56960000  0.30130000  0.76750000  1
  C  C244  1  0.50380000  0.31560000  0.68860000  1
  C  C245  1  0.56810000  0.25940000  0.80750000  1
  C  C246  1  0.54660000  0.32020000  0.72620000  1
  C  C247  1  0.53860000  0.21740000  0.82010000  1
  C  C248  1  0.93040000  0.05130000  0.01750000  1
  C  C249  1  0.99620000  0.06560000  0.93860000  1
  C  C250  1  0.93190000  0.00940000  0.05750000  1
  C  C251  1  0.95340000  0.07020000  0.97620000  1
  C  C252  1  0.96140000  0.96740000  0.07010000  1
  C  C253  1  0.93040000  0.55130000  0.51750000  1
  C  C254  1  0.99620000  0.56560000  0.43860000  1
  C  C255  1  0.93190000  0.50940000  0.55750000  1
  C  C256  1  0.95340000  0.57020000  0.47620000  1
  C  C257  1  0.96140000  0.46740000  0.57010000  1
  C  C258  1  0.43040000  0.05130000  0.51750000  1
  C  C259  1  0.49620000  0.06560000  0.43860000  1
  C  C260  1  0.43190000  0.00940000  0.55750000  1
  C  C261  1  0.45340000  0.07020000  0.47620000  1
  C  C262  1  0.46140000  0.96740000  0.57010000  1
  C  C263  1  0.43040000  0.55130000  0.01750000  1
  C  C264  1  0.49620000  0.56560000  0.93860000  1
  C  C265  1  0.43190000  0.50940000  0.05750000  1
  C  C266  1  0.45340000  0.57020000  0.97620000  1
  C  C267  1  0.46140000  0.46740000  0.07010000  1
  C  C268  1  0.31960000  0.19870000  0.01750000  1
  C  C269  1  0.25380000  0.18440000  0.93860000  1
  C  C270  1  0.31810000  0.24060000  0.05750000  1
  C  C271  1  0.29660000  0.17980000  0.97620000  1
  C  C272  1  0.28860000  0.28260000  0.07010000  1
  C  C273  1  0.31960000  0.69870000  0.51750000  1
  C  C274  1  0.25380000  0.68440000  0.43860000  1
  C  C275  1  0.31810000  0.74060000  0.55750000  1
  C  C276  1  0.29660000  0.67980000  0.47620000  1
  C  C277  1  0.28860000  0.78260000  0.57010000  1
  C  C278  1  0.81960000  0.19870000  0.51750000  1
  C  C279  1  0.75380000  0.18440000  0.43860000  1
  C  C280  1  0.81810000  0.24060000  0.55750000  1
  C  C281  1  0.79660000  0.17980000  0.47620000  1
  C  C282  1  0.78860000  0.28260000  0.57010000  1
  C  C283  1  0.81960000  0.69870000  0.01750000  1
  C  C284  1  0.75380000  0.68440000  0.93860000  1
  C  C285  1  0.81810000  0.74060000  0.05750000  1
  C  C286  1  0.79660000  0.67980000  0.97620000  1
  C  C287  1  0.78860000  0.78260000  0.07010000  1
  C  C288  1  0.31960000  0.05130000  0.23250000  1
  C  C289  1  0.25380000  0.06560000  0.31140000  1
  C  C290  1  0.31810000  0.00940000  0.19250000  1
  C  C291  1  0.29660000  0.07020000  0.27380000  1
  C  C292  1  0.28860000  0.96740000  0.17990000  1
  C  C293  1  0.31960000  0.55130000  0.73250000  1
  C  C294  1  0.25380000  0.56560000  0.81140000  1
  C  C295  1  0.31810000  0.50940000  0.69250000  1
  C  C296  1  0.29660000  0.57020000  0.77380000  1
  C  C297  1  0.28860000  0.46740000  0.67990000  1
  C  C298  1  0.81960000  0.05130000  0.73250000  1
  C  C299  1  0.75380000  0.06560000  0.81140000  1
  C  C300  1  0.81810000  0.00940000  0.69250000  1
  C  C301  1  0.79660000  0.07020000  0.77380000  1
  C  C302  1  0.78860000  0.96740000  0.67990000  1
  C  C303  1  0.81960000  0.55130000  0.23250000  1
  C  C304  1  0.75380000  0.56560000  0.31140000  1
  C  C305  1  0.81810000  0.50940000  0.19250000  1
  C  C306  1  0.79660000  0.57020000  0.27380000  1
  C  C307  1  0.78860000  0.46740000  0.17990000  1
  C  C308  1  0.93040000  0.19870000  0.23250000  1
  C  C309  1  0.99620000  0.18440000  0.31140000  1
  C  C310  1  0.93190000  0.24060000  0.19250000  1
  C  C311  1  0.95340000  0.17980000  0.27380000  1
  C  C312  1  0.96140000  0.28260000  0.17990000  1
  C  C313  1  0.93040000  0.69870000  0.73250000  1
  C  C314  1  0.99620000  0.68440000  0.81140000  1
  C  C315  1  0.93190000  0.74060000  0.69250000  1
  C  C316  1  0.95340000  0.67980000  0.77380000  1
  C  C317  1  0.96140000  0.78260000  0.67990000  1
  C  C318  1  0.43040000  0.19870000  0.73250000  1
  C  C319  1  0.49620000  0.18440000  0.81140000  1
  C  C320  1  0.43190000  0.24060000  0.69250000  1
  C  C321  1  0.45340000  0.17980000  0.77380000  1
  C  C322  1  0.46140000  0.28260000  0.67990000  1
  C  C323  1  0.43040000  0.69870000  0.23250000  1
  C  C324  1  0.49620000  0.68440000  0.31140000  1
  C  C325  1  0.43190000  0.74060000  0.19250000  1
  C  C326  1  0.45340000  0.67980000  0.27380000  1
  C  C327  1  0.46140000  0.78260000  0.17990000  1
