# generated using pymatgen
data_CdH9C10S4N5
_symmetry_space_group_name_H-M   'P 1'
_cell_length_a   7.91280545
_cell_length_b   8.04482322
_cell_length_c   25.55510000
_cell_angle_alpha   90.00000000
_cell_angle_beta   90.00000000
_cell_angle_gamma   109.21247671
_symmetry_Int_Tables_number   1
_chemical_formula_structural   CdH9C10S4N5
_chemical_formula_sum   'Cd4 H36 C40 S16 N20'
_cell_volume   1536.16103549
_cell_formula_units_Z   4
loop_
 _symmetry_equiv_pos_site_id
 _symmetry_equiv_pos_as_xyz
  1  'x, y, z'
loop_
 _atom_site_type_symbol
 _atom_site_label
 _atom_site_symmetry_multiplicity
 _atom_site_fract_x
 _atom_site_fract_y
 _atom_site_fract_z
 _atom_site_occupancy
 _atom_site_hle17_bader_spin_density
 _atom_site_hle17_ddec_charge
 _atom_site_hle17_ddec_spin_density
 _atom_site_hle17_ddec_sum_bond_order
 _atom_site_hle17_magmom
 _atom_site_hse06_10hf_bader_spin_density
 _atom_site_hse06_10hf_ddec_charge
 _atom_site_hse06_10hf_ddec_spin_density
 _atom_site_hse06_10hf_ddec_sum_bond_order
 _atom_site_hse06_10hf_magmom
 _atom_site_hse06_bader_spin_density
 _atom_site_hse06_ddec_charge
 _atom_site_hse06_ddec_spin_density
 _atom_site_hse06_ddec_sum_bond_order
 _atom_site_hse06_magmom
 _atom_site_pbe_bader_charge
 _atom_site_pbe_bader_spin_density
 _atom_site_pbe_cm5_charge
 _atom_site_pbe_ddec_charge
 _atom_site_pbe_ddec_spin_density
 _atom_site_pbe_ddec_sum_bond_order
 _atom_site_pbe_magmom
Cd  Cd0  1  0.11923784  0.25852321  0.34301529  1  0  0.832628  0  2.067578  0  0  0.65709  0  2.523989  0  0  0.701659  0  2.490572  0  1.092627  0  0.660194  0.626175  0  2.546313  0
Cd  Cd1  1  0.38076349  0.74147486  0.84301607  1  0  0.83266  0  2.067705  0  0  0.657109  0  2.52414  0  0  0.701679  0  2.490722  0  1.092649  0  0.660219  0.626193  0  2.546464  0
Cd  Cd2  1  0.88076353  0.74147223  0.65698510  1  0  0.832711  0  2.067507  0  0  0.65717  0  2.523919  0  0  0.701739  0  2.490501  0  1.092629  0  0.660217  0.626255  0  2.546245  0
Cd  Cd3  1  0.61923926  0.25852848  0.15698510  1  0  0.832696  0  2.067512  0  0  0.657143  0  2.523936  0  0  0.701713  0  2.490516  0  1.092635  0  0.660208  0.626227  0  2.546261  0
H  H4  1  0.90838603  0.15681544  0.50087380  1  0  0.29369  0  0.948946  0  0  0.268177  0  1.023256  0  0  0.278066  0  1.01544  0  0.555325  0  0.303015  0.261231  0  1.028752  0
H  H5  1  0.59161763  0.84318790  0.00087341  1  0  0.29368  0  0.948927  0  0  0.268155  0  1.023248  0  0  0.278045  0  1.015434  0  0.555295  0  0.303005  0.261208  0  1.028744  0
H  H6  1  0.09161583  0.84318526  0.49912659  1  0  0.293718  0  0.948905  0  0  0.268205  0  1.023208  0  0  0.278094  0  1.015394  0  0.555293  0  0.30303  0.261259  0  1.028704  0
H  H7  1  0.40838127  0.15681149  0.99912659  1  0  0.293674  0  0.948951  0  0  0.268178  0  1.023225  0  0  0.278069  0  1.01541  0  0.555287  0  0.302994  0.261233  0  1.028722  0
H  H8  1  0.93509690  0.00503899  0.24479458  1  0  0.080137  0  0.955452  0  0  0.086391  0  1.024018  0  0  0.088656  0  1.022616  0  0.106751  0  0.107094  0.084652  0  1.025228  0
H  H9  1  0.56490457  0.99495777  0.74479262  1  0  0.080205  0  0.955513  0  0  0.086455  0  1.024071  0  0  0.088719  0  1.022671  0  0.10668  0  0.107111  0.084717  0  1.02528  0
H  H10  1  0.06490321  0.99495645  0.75520620  1  0  0.080163  0  0.955478  0  0  0.086414  0  1.024038  0  0  0.088679  0  1.022636  0  0.106731  0  0.107096  0.084675  0  1.025249  0
H  H11  1  0.43510609  0.00503899  0.25520542  1  0  0.08014  0  0.955534  0  0  0.086409  0  1.024079  0  0  0.088673  0  1.022678  0  0.106684  0  0.107112  0.084701  0  1.025258  0
H  H12  1  0.67061603  0.73828929  0.22404530  1  0  0.099391  0  0.9737  0  0  0.10262  0  1.045904  0  0  0.105916  0  1.045442  0  0.120643  0  0.09782  0.100292  0  1.046297  0
H  H13  1  0.82938214  0.26171273  0.72404373  1  0  0.099325  0  0.97375  0  0  0.102576  0  1.045935  0  0  0.105872  0  1.045472  0  0.120574  0  0.097811  0.100249  0  1.046328  0
H  H14  1  0.32938034  0.26171010  0.77595470  1  0  0.099392  0  0.973629  0  0  0.102638  0  1.045825  0  0  0.105932  0  1.045369  0  0.12066  0  0.097818  0.10031  0  1.046221  0
H  H15  1  0.17062358  0.73829192  0.27595588  1  0  0.099334  0  0.973638  0  0  0.102584  0  1.045829  0  0  0.105877  0  1.045382  0  0.120556  0  0.097814  0.100257  0  1.046223  0
H  H16  1  0.46630861  0.58866112  0.29725026  1  0  0.093385  0  0.955683  0  0  0.10517  0  1.014206  0  0  0.107036  0  1.013307  0  0.096284  0  0.103154  0.103706  0  1.015043  0
H  H17  1  0.03368817  0.41134222  0.79724947  1  0  0.093421  0  0.955681  0  0  0.105208  0  1.014188  0  0  0.107074  0  1.01329  0  0.096229  0  0.103167  0.103735  0  1.015035  0
H  H18  1  0.53368486  0.41134090  0.70274935  1  0  0.093433  0  0.955665  0  0  0.105215  0  1.014179  0  0  0.107081  0  1.013281  0  0.09626  0  0.103168  0.103741  0  1.015027  0
H  H19  1  0.96631376  0.58866244  0.20275092  1  0  0.093415  0  0.955701  0  0  0.105204  0  1.014206  0  0  0.10707  0  1.013307  0  0.096262  0  0.103172  0.103732  0  1.015052  0
H  H20  1  0.53098179  0.71689466  0.38811392  1  0  0.105973  0  0.98214  0  0  0.115338  0  1.046908  0  0  0.11868  0  1.04559  0  0.097873  0  0.094689  0.112893  0  1.048061  0
H  H21  1  0.96901595  0.28310605  0.88811196  1  0  0.10603  0  0.98213  0  0  0.11539  0  1.046894  0  0  0.118733  0  1.045573  0  0.097928  0  0.094717  0.112948  0  1.048045  0
H  H22  1  0.46901376  0.28310605  0.61188686  1  0  0.106013  0  0.982212  0  0  0.115372  0  1.046977  0  0  0.118713  0  1.045662  0  0.097903  0  0.094715  0.112929  0  1.048127  0
H  H23  1  0.03098383  0.71689597  0.11188804  1  0  0.106012  0  0.982124  0  0  0.115365  0  1.046891  0  0  0.118708  0  1.045573  0  0.097933  0  0.094713  0.112923  0  1.048042  0
H  H24  1  0.71623855  0.94154029  0.44787538  1  0  0.106807  0  0.919105  0  0  0.115453  0  0.983423  0  0  0.11894  0  0.979205  0  0.133004  0  0.125187  0.112929  0  0.986476  0
H  H25  1  0.78376544  0.05845646  0.94787342  1  0  0.106741  0  0.919139  0  0  0.115399  0  0.983433  0  0  0.118888  0  0.979211  0  0.133058  0  0.125186  0.112883  0  0.986479  0
H  H26  1  0.28376117  0.05845778  0.55212502  1  0  0.106743  0  0.919176  0  0  0.115393  0  0.983478  0  0  0.118879  0  0.979262  0  0.133023  0  0.125172  0.112872  0  0.986527  0
H  H27  1  0.21623807  0.94154161  0.05212580  1  0  0.106815  0  0.919153  0  0  0.115458  0  0.983446  0  0  0.118946  0  0.979227  0  0.133042  0  0.125202  0.112941  0  0.986498  0
H  H28  1  0.48046869  0.61318998  0.52499501  1  0  0.117194  0  0.992656  0  0  0.134145  0  1.057882  0  0  0.134561  0  1.059643  0  0.103769  0  0.08239  0.13378  0  1.056741  0
H  H29  1  0.01952968  0.38680677  0.02499423  1  0  0.117215  0  0.992618  0  0  0.134189  0  1.057829  0  0  0.134594  0  1.059596  0  0.103766  0  0.082409  0.133825  0  1.056686  0
H  H30  1  0.51953016  0.38680545  0.47500538  1  0  0.117209  0  0.992647  0  0  0.134174  0  1.057852  0  0  0.134588  0  1.059614  0  0.103785  0  0.082398  0.13381  0  1.056706  0
H  H31  1  0.98047005  0.61319130  0.97500538  1  0  0.117191  0  0.992648  0  0  0.13415  0  1.057874  0  0  0.134566  0  1.059632  0  0.103746  0  0.082391  0.133784  0  1.056732  0
H  H32  1  0.36161899  0.68542337  0.57435933  1  0  0.131644  0  0.96827  0  0  0.144751  0  1.039224  0  0  0.146089  0  1.039702  0  0.122857  0  0.088111  0.143748  0  1.038965  0
H  H33  1  0.13837981  0.31457471  0.07435815  1  0  0.131648  0  0.968299  0  0  0.144747  0  1.039266  0  0  0.146083  0  1.039745  0  0.122889  0  0.088115  0.143743  0  1.039008  0
H  H34  1  0.63838073  0.31457471  0.42564146  1  0  0.131681  0  0.968193  0  0  0.144768  0  1.039178  0  0  0.146106  0  1.039655  0  0.122883  0  0.088132  0.143765  0  1.03892  0
H  H35  1  0.86161738  0.68542337  0.92564107  1  0  0.13163  0  0.968273  0  0  0.144731  0  1.039247  0  0  0.146071  0  1.03972  0  0.122869  0  0.088103  0.143728  0  1.038988  0
H  H36  1  0.32040296  0.71756731  0.50598589  1  0  0.137252  0  0.974013  0  0  0.152728  0  1.037928  0  0  0.153948  0  1.038256  0  0.111373  0  0.092102  0.15184  0  1.037709  0
H  H37  1  0.17959716  0.28243471  0.00598472  1  0  0.13725  0  0.974011  0  0  0.152728  0  1.037933  0  0  0.153952  0  1.038256  0  0.111408  0  0.092106  0.151841  0  1.037714  0
H  H38  1  0.67959638  0.28243339  0.49401450  1  0  0.137258  0  0.974044  0  0  0.152735  0  1.037959  0  0  0.153958  0  1.038284  0  0.111446  0  0.092107  0.151847  0  1.037741  0
H  H39  1  0.82040003  0.71756336  0.99401450  1  0  0.137239  0  0.97406  0  0  0.152734  0  1.037967  0  0  0.153942  0  1.038306  0  0.111432  0  0.0921  0.151847  0  1.037748  0
C  C40  1  0.84182861  0.93641048  0.27528360  1  0  0.147105  0  3.690718  0  0  0.114861  0  3.946112  0  0  0.1219  0  3.963445  0  0.460722  0  0.052352  0.110242  0  3.934429  0
C  C41  1  0.65817077  0.06358760  0.77528165  1  0  0.147003  0  3.690861  0  0  0.114739  0  3.946241  0  0  0.121778  0  3.963578  0  0.460674  0  0.052321  0.110119  0  3.934556  0
C  C42  1  0.15817029  0.06358891  0.72471718  1  0  0.147137  0  3.690744  0  0  0.114891  0  3.94611  0  0  0.12193  0  3.963444  0  0.460682  0  0.052377  0.110272  0  3.934427  0
C  C43  1  0.34182940  0.93641179  0.22471835  1  0  0.147085  0  3.690836  0  0  0.114801  0  3.946227  0  0  0.12184  0  3.96356  0  0.460524  0  0.052348  0.110157  0  3.934532  0
C  C44  1  0.69487229  0.78780906  0.26396610  1  0  -0.105659  0  3.704293  0  0  -0.120912  0  3.958726  0  0  -0.127088  0  3.979293  0  -0.000827  0  -0.079897  -0.117038  0  3.945037  0
C  C45  1  0.80512923  0.21219165  0.76396571  1  0  -0.10558  0  3.704449  0  0  -0.120841  0  3.958868  0  0  -0.12702  0  3.979441  0  -0.000686  0  -0.079921  -0.116967  0  3.945176  0
C  C46  1  0.30512578  0.21219165  0.73603273  1  0  -0.10568  0  3.704361  0  0  -0.120951  0  3.958795  0  0  -0.127129  0  3.979362  0  -0.000784  0  -0.079921  -0.117075  0  3.945102  0
C  C47  1  0.19487643  0.78780906  0.23603351  1  0  -0.105579  0  3.704348  0  0  -0.120834  0  3.958778  0  0  -0.127012  0  3.979342  0  -0.000623  0  -0.079929  -0.116959  0  3.945093  0
C  C48  1  0.58106637  0.70570963  0.30475130  1  0  0.007912  0  3.700215  0  0  -0.006977  0  3.945511  0  0  -0.003794  0  3.963765  0  0.032403  0  -0.0644  -0.008882  0  3.933187  0
C  C49  1  0.91893307  0.29429239  0.80474935  1  0  0.007837  0  3.70026  0  0  -0.007059  0  3.945563  0  0  -0.003877  0  3.963818  0  0.032397  0  -0.064406  -0.008956  0  3.933244  0
C  C50  1  0.41893088  0.29429239  0.69524870  1  0  0.007792  0  3.700295  0  0  -0.007098  0  3.945595  0  0  -0.003916  0  3.963851  0  0.032922  0  -0.064449  -0.008995  0  3.933275  0
C  C51  1  0.08106754  0.70570832  0.19524987  1  0  0.007816  0  3.700252  0  0  -0.0071  0  3.945579  0  0  -0.003917  0  3.963833  0  0.032427  0  -0.06442  -0.008999  0  3.933258  0
C  C52  1  0.61632601  0.77571707  0.35499920  1  0  -0.136756  0  3.70155  0  0  -0.161194  0  3.95385  0  0  -0.166946  0  3.97371  0  -0.03759  0  -0.079764  -0.157475  0  3.940578  0
C  C53  1  0.88367337  0.22428100  0.85499802  1  0  -0.13685  0  3.701479  0  0  -0.161278  0  3.953795  0  0  -0.167027  0  3.973652  0  -0.037513  0  -0.079806  -0.157561  0  3.94052  0
C  C54  1  0.38367163  0.22428232  0.64500041  1  0  -0.136768  0  3.701553  0  0  -0.161187  0  3.953845  0  0  -0.16694  0  3.973707  0  -0.038083  0  -0.079752  -0.15747  0  3.94057  0
C  C55  1  0.11632729  0.77572365  0.14500158  1  0  -0.136769  0  3.701435  0  0  -0.161169  0  3.953735  0  0  -0.16692  0  3.973595  0  -0.037541  0  -0.079754  -0.157453  0  3.940459  0
C  C56  1  0.76578054  0.92511093  0.36318426  1  0  0.200257  0  3.818124  0  0  0.197346  0  4.068292  0  0  0.202123  0  4.088767  0  0.46023  0  0.112538  0.194205  0  4.054286  0
C  C57  1  0.73422093  0.07488583  0.86318230  1  0  0.200391  0  3.818117  0  0  0.197435  0  4.068286  0  0  0.20221  0  4.088762  0  0.460235  0  0.112542  0.194294  0  4.054284  0
C  C58  1  0.23421836  0.07488846  0.63681613  1  0  0.200394  0  3.817979  0  0  0.197436  0  4.068167  0  0  0.202212  0  4.088644  0  0.460222  0  0.112536  0.194295  0  4.054164  0
C  C59  1  0.26578429  0.92511356  0.13681731  1  0  0.200358  0  3.818082  0  0  0.197365  0  4.068274  0  0  0.202141  0  4.08875  0  0.460175  0  0.112494  0.194224  0  4.05427  0
C  C60  1  0.80585053  0.00117418  0.41537110  1  0  0.041534  0  3.618567  0  0  -0.005691  0  3.889395  0  0  0.005324  0  3.896459  0  0.585498  0  0.069226  -0.013568  0  3.885682  0
C  C61  1  0.69415258  0.99881994  0.91536875  1  0  0.041541  0  3.618615  0  0  -0.005664  0  3.889425  0  0  0.005348  0  3.896498  0  0.585539  0  0.069218  -0.013549  0  3.885708  0
C  C62  1  0.19414793  0.99882389  0.58462968  1  0  0.041544  0  3.618614  0  0  -0.005655  0  3.889436  0  0  0.005358  0  3.896503  0  0.585531  0  0.069245  -0.013535  0  3.885723  0
C  C63  1  0.30584758  0.00117945  0.08463047  1  0  0.041435  0  3.618645  0  0  -0.00574  0  3.889451  0  0  0.005279  0  3.896507  0  0.585499  0  0.069229  -0.013622  0  3.885738  0
C  C64  1  0.13584215  0.36176190  0.47305156  1  0  0.18023  0  3.812131  0  0  0.14905  0  4.134595  0  0  0.173195  0  4.14473  0  0.214573  0  0.128657  0.133077  0  4.126945  0
C  C65  1  0.36415709  0.63823749  0.97305078  1  0  0.180249  0  3.81222  0  0  0.149065  0  4.134669  0  0  0.173212  0  4.144805  0  0.214638  0  0.128646  0.133093  0  4.127018  0
C  C66  1  0.86415251  0.63823617  0.52694922  1  0  0.180146  0  3.812363  0  0  0.148973  0  4.13481  0  0  0.173118  0  4.144949  0  0.214543  0  0.128614  0.133  0  4.127159  0
C  C67  1  0.63584225  0.36176321  0.02694883  1  0  0.180289  0  3.812088  0  0  0.149089  0  4.134563  0  0  0.173238  0  4.144697  0  0.214661  0  0.12865  0.133115  0  4.126914  0
C  C68  1  0.35276436  0.63112525  0.53462479  1  0  -0.335434  0  3.62825  0  0  -0.402974  0  3.870046  0  0  -0.403766  0  3.877893  0  -0.232426  0  -0.237844  -0.402198  0  3.864624  0
C  C69  1  0.14723532  0.36887545  0.03462401  1  0  -0.335452  0  3.628238  0  0  -0.403014  0  3.870054  0  0  -0.403801  0  3.877922  0  -0.232507  0  -0.23786  -0.402237  0  3.864631  0
C  C70  1  0.64723283  0.36887282  0.46537599  1  0  -0.335519  0  3.628142  0  0  -0.403054  0  3.869973  0  0  -0.403856  0  3.877831  0  -0.232574  0  -0.237888  -0.402277  0  3.864552  0
C  C71  1  0.85276655  0.63112525  0.96537560  1  0  -0.33541  0  3.628259  0  0  -0.40298  0  3.870045  0  0  -0.403767  0  3.877918  0  -0.232489  0  -0.237838  -0.402204  0  3.864622  0
C  C72  1  0.29043761  0.37755283  0.22100990  1  0  0.323326  0  3.989374  0  0  0.302545  0  4.290309  0  0  0.325623  0  4.304301  0  0.584332  0  0.152203  0.286885  0  4.280374  0
C  C73  1  0.20955526  0.62244261  0.72100755  1  0  0.323035  0  3.989014  0  0  0.302256  0  4.289962  0  0  0.325337  0  4.303958  0  0.583767  0  0.152019  0.286596  0  4.280021  0
C  C74  1  0.70956602  0.62245314  0.77899167  1  0  0.323334  0  3.989156  0  0  0.302561  0  4.290076  0  0  0.325641  0  4.304067  0  0.584247  0  0.152208  0.2869  0  4.280141  0
C  C75  1  0.79044529  0.37755415  0.27899363  1  0  0.323095  0  3.989296  0  0  0.302314  0  4.290237  0  0  0.325395  0  4.30423  0  0.583844  0  0.152062  0.286655  0  4.280299  0
C  C76  1  0.29551824  0.00482311  0.41302441  1  0  0.292598  0  3.998571  0  0  0.278139  0  4.304836  0  0  0.298207  0  4.318573  0  0.586999  0  0.134571  0.264449  0  4.295097  0
C  C77  1  0.20448612  0.99518023  0.91302362  1  0  0.292477  0  3.998534  0  0  0.278023  0  4.304792  0  0  0.29809  0  4.318529  0  0.586598  0  0.134503  0.264335  0  4.295053  0
C  C78  1  0.70448148  0.99517497  0.58697442  1  0  0.292616  0  3.998638  0  0  0.278159  0  4.304893  0  0  0.298226  0  4.318636  0  0.586912  0  0.134597  0.264469  0  4.295155  0
C  C79  1  0.79551317  0.00481652  0.08697520  1  0  0.292575  0  3.998668  0  0  0.278112  0  4.304932  0  0  0.298177  0  4.318671  0  0.587147  0  0.134533  0.264423  0  4.295194  0
S  S80  1  0.25805790  0.47551032  0.42342350  1  0  -0.299015  0  2.16811  0  0  -0.265788  0  2.508746  0  0  -0.285164  0  2.505776  0  -0.069801  0  -0.119192  -0.252643  0  2.510463  0
S  S81  1  0.24193838  0.52448775  0.92342350  1  0  -0.299027  0  2.168149  0  0  -0.265803  0  2.508787  0  0  -0.285181  0  2.505816  0  -0.069859  0  -0.119187  -0.25266  0  2.510505  0
S  S82  1  0.74193765  0.52449038  0.57657689  1  0  -0.299008  0  2.168182  0  0  -0.265783  0  2.508813  0  0  -0.285155  0  2.505836  0  -0.069863  0  -0.119182  -0.25264  0  2.510533  0
S  S83  1  0.75806135  0.47551032  0.07657689  1  0  -0.299051  0  2.168081  0  0  -0.265823  0  2.508734  0  0  -0.285193  0  2.505745  0  -0.069845  0  -0.119201  -0.25268  0  2.510456  0
S  S84  1  0.17678362  0.42286949  0.53840760  1  0  0.105983  0  2.492343  0  0  0.115655  0  2.854498  0  0  0.107794  0  2.856429  0  0.190836  0  0.061109  0.121115  0  2.852941  0
S  S85  1  0.32321354  0.57713121  0.03840682  1  0  0.105999  0  2.492322  0  0  0.115665  0  2.854507  0  0  0.107805  0  2.856434  0  0.190815  0  0.061108  0.121126  0  2.852948  0
S  S86  1  0.82321275  0.57712990  0.46159318  1  0  0.106035  0  2.492347  0  0  0.115706  0  2.8545  0  0  0.107846  0  2.856431  0  0.190916  0  0.061125  0.121167  0  2.852941  0
S  S87  1  0.67678619  0.42286686  0.96159240  1  0  0.105975  0  2.492297  0  0  0.115649  0  2.854471  0  0  0.107789  0  2.856396  0  0.190789  0  0.061094  0.12111  0  2.852913  0
S  S88  1  0.39637867  0.46356445  0.16779273  1  0  -0.339289  0  2.1754  0  0  -0.308965  0  2.501303  0  0  -0.327453  0  2.497835  0  0.075579  0  -0.14942  -0.29586  0  2.503254  0
S  S89  1  0.10361854  0.53644021  0.66779430  1  0  -0.339125  0  2.175674  0  0  -0.308825  0  2.501625  0  0  -0.327312  0  2.498159  0  0.076054  0  -0.149375  -0.29572  0  2.503569  0
S  S90  1  0.60362666  0.53644284  0.83220805  1  0  -0.339234  0  2.175361  0  0  -0.308922  0  2.501278  0  0  -0.327407  0  2.49781  0  0.075624  0  -0.149408  -0.295817  0  2.503227  0
S  S91  1  0.89638074  0.46355655  0.33220884  1  0  -0.339163  0  2.175655  0  0  -0.308845  0  2.50157  0  0  -0.327329  0  2.498102  0  0.075913  0  -0.149384  -0.29574  0  2.503516  0
S  S92  1  0.36727110  0.09305409  0.35612109  1  0  -0.335351  0  2.163721  0  0  -0.295931  0  2.48179  0  0  -0.315942  0  2.478453  0  0.026352  0  -0.145718  -0.281578  0  2.48353  0
S  S93  1  0.13273502  0.90695451  0.85612109  1  0  -0.335326  0  2.16376  0  0  -0.295899  0  2.48182  0  0  -0.315911  0  2.478483  0  0.02676  0  -0.145722  -0.281544  0  2.483553  0
S  S94  1  0.63272654  0.90694530  0.64387735  1  0  -0.335461  0  2.163638  0  0  -0.29605  0  2.481716  0  0  -0.316047  0  2.478346  0  0.026391  0  -0.145772  -0.281695  0  2.483451  0
S  S95  1  0.86726987  0.09305145  0.14387813  1  0  -0.335411  0  2.163663  0  0  -0.295981  0  2.481714  0  0  -0.315992  0  2.478372  0  0.026406  0  -0.145738  -0.281624  0  2.483448  0
N  N96  1  0.87690433  0.00295521  0.32349120  1  0  -0.341012  0  3.24489  0  0  -0.268356  0  3.495798  0  0  -0.286399  0  3.515488  0  -1.219412  0  -0.325606  -0.256059  0  3.4822  0
N  N97  1  0.62309840  0.99704155  0.82348924  1  0  -0.340986  0  3.244952  0  0  -0.268269  0  3.495801  0  0  -0.286308  0  3.515488  0  -1.219527  0  -0.325552  -0.255971  0  3.482204  0
N  N98  1  0.12309665  0.99704287  0.67650958  1  0  -0.341097  0  3.244812  0  0  -0.268396  0  3.495676  0  0  -0.286439  0  3.515368  0  -1.21944  0  -0.325594  -0.256098  0  3.48208  0
N  N99  1  0.37690891  0.00295652  0.17651076  1  0  -0.341063  0  3.244853  0  0  -0.268325  0  3.495708  0  0  -0.286369  0  3.515401  0  -1.219348  0  -0.325603  -0.25603  0  3.482122  0
N  N100  1  0.94688421  0.13809036  0.42110733  1  0  -0.134894  0  3.305708  0  0  -0.084163  0  3.575356  0  0  -0.093664  0  3.59518  0  -0.747685  0  -0.21402  -0.077786  0  3.561747  0
N  N101  1  0.55311561  0.86190902  0.92110655  1  0  -0.134912  0  3.305893  0  0  -0.084206  0  3.575546  0  0  -0.093707  0  3.595373  0  -0.74772  0  -0.214016  -0.077828  0  3.561939  0
N  N102  1  0.05311343  0.86190902  0.57889267  1  0  -0.134899  0  3.305809  0  0  -0.084179  0  3.575449  0  0  -0.09368  0  3.595278  0  -0.747701  0  -0.214029  -0.077802  0  3.561841  0
N  N103  1  0.44688455  0.13809036  0.07889306  1  0  -0.134803  0  3.30585  0  0  -0.084107  0  3.575494  0  0  -0.093605  0  3.595323  0  -0.747706  0  -0.214008  -0.077731  0  3.561888  0
N  N104  1  0.99213763  0.21249046  0.46822082  1  0  -0.21424  0  3.464458  0  0  -0.157058  0  3.70713  0  0  -0.177607  0  3.725281  0  -0.834029  0  -0.269997  -0.143114  0  3.694511  0
N  N105  1  0.50786093  0.78750893  0.96822043  1  0  -0.214245  0  3.464574  0  0  -0.157025  0  3.707207  0  0  -0.177579  0  3.725368  0  -0.833957  0  -0.269975  -0.14308  0  3.694586  0
N  N106  1  0.00785957  0.78750761  0.53177918  1  0  -0.214232  0  3.464589  0  0  -0.157042  0  3.707248  0  0  -0.177595  0  3.725409  0  -0.833957  0  -0.269986  -0.143098  0  3.694628  0
N  N107  1  0.49214006  0.21248914  0.03177957  1  0  -0.214326  0  3.464595  0  0  -0.157106  0  3.707201  0  0  -0.17767  0  3.725376  0  -0.83396  0  -0.269952  -0.143161  0  3.694581  0
N  N108  1  0.21247997  0.31599505  0.25971841  1  0  -0.531667  0  2.902773  0  0  -0.467788  0  3.178746  0  0  -0.490442  0  3.18476  0  -1.316753  0  -0.401221  -0.452285  0  3.174364  0
N  N109  1  0.28752703  0.68401619  0.75972154  1  0  -0.531554  0  2.902205  0  0  -0.467663  0  3.178177  0  0  -0.490323  0  3.184196  0  -1.316676  0  -0.401121  -0.452158  0  3.173789  0
N  N110  1  0.78752613  0.68400697  0.74028159  1  0  -0.531752  0  2.902632  0  0  -0.467879  0  3.178622  0  0  -0.490536  0  3.184635  0  -1.316705  0  -0.401252  -0.452375  0  3.17424  0
N  N111  1  0.71248006  0.31599636  0.24028120  1  0  -0.531565  0  2.902427  0  0  -0.467686  0  3.178389  0  0  -0.490343  0  3.184403  0  -1.316606  0  -0.401142  -0.452183  0  3.174007  0
N  N112  1  0.24659795  0.94199180  0.45453902  1  0  -0.523733  0  2.759054  0  0  -0.493675  0  3.004757  0  0  -0.509461  0  3.012805  0  -1.299509  0  -0.377326  -0.482752  0  2.99919  0
N  N113  1  0.25340508  0.05800759  0.95453980  1  0  -0.523622  0  2.758984  0  0  -0.493577  0  3.004684  0  0  -0.509363  0  3.01273  0  -1.299515  0  -0.377266  -0.482657  0  2.999121  0
N  N114  1  0.75339622  0.05800101  0.54545903  1  0  -0.523682  0  2.759223  0  0  -0.493621  0  3.004927  0  0  -0.509411  0  3.012979  0  -1.299495  0  -0.377307  -0.482697  0  2.999361  0
N  N115  1  0.74659552  0.94199311  0.04546138  1  0  -0.523643  0  2.759195  0  0  -0.493582  0  3.004902  0  0  -0.509368  0  3.012947  0  -1.299706  0  -0.377269  -0.482661  0  2.999338  0
