# generated using pymatgen
data_Cd3H15C33(NO7)2
_symmetry_space_group_name_H-M   'P 1'
_cell_length_a   35.31900000
_cell_length_b   18.23320000
_cell_length_c   23.45200000
_cell_angle_alpha   90.00000000
_cell_angle_beta   120.17200000
_cell_angle_gamma   90.00000000
_symmetry_Int_Tables_number   1
_chemical_formula_structural   Cd3H15C33(NO7)2
_chemical_formula_sum   'Cd24 H120 C264 N16 O112'
_cell_volume   13056.49138053
_cell_formula_units_Z   8
loop_
 _symmetry_equiv_pos_site_id
 _symmetry_equiv_pos_as_xyz
  1  'x, y, z'
loop_
 _atom_site_type_symbol
 _atom_site_label
 _atom_site_symmetry_multiplicity
 _atom_site_fract_x
 _atom_site_fract_y
 _atom_site_fract_z
 _atom_site_occupancy
  Cd  Cd0  1  0.29150000  0.89689000  0.68628000  1.0
  Cd  Cd1  1  0.82324000  0.95339000  0.97106000  1.0
  Cd  Cd2  1  0.68266000  0.61959000  0.17018000  1.0
  Cd  Cd3  1  0.79150000  0.39689000  0.68628000  1.0
  Cd  Cd4  1  0.32324000  0.45339000  0.97106000  1.0
  Cd  Cd5  1  0.18266000  0.11959000  0.17018000  1.0
  Cd  Cd6  1  0.70850000  0.89689000  0.81372000  1.0
  Cd  Cd7  1  0.17676000  0.95339000  0.52894000  1.0
  Cd  Cd8  1  0.31734000  0.61959000  0.32982000  1.0
  Cd  Cd9  1  0.20850000  0.39689000  0.81372000  1.0
  Cd  Cd10  1  0.67676000  0.45339000  0.52894000  1.0
  Cd  Cd11  1  0.81734000  0.11959000  0.32982000  1.0
  Cd  Cd12  1  0.70850000  0.10311000  0.31372000  1.0
  Cd  Cd13  1  0.17676000  0.04661000  0.02894000  1.0
  Cd  Cd14  1  0.31734000  0.38041000  0.82982000  1.0
  Cd  Cd15  1  0.20850000  0.60311000  0.31372000  1.0
  Cd  Cd16  1  0.67676000  0.54661000  0.02894000  1.0
  Cd  Cd17  1  0.81734000  0.88041000  0.82982000  1.0
  Cd  Cd18  1  0.29150000  0.10311000  0.18628000  1.0
  Cd  Cd19  1  0.82324000  0.04661000  0.47106000  1.0
  Cd  Cd20  1  0.68266000  0.38041000  0.67018000  1.0
  Cd  Cd21  1  0.79150000  0.60311000  0.18628000  1.0
  Cd  Cd22  1  0.32324000  0.54661000  0.47106000  1.0
  Cd  Cd23  1  0.18266000  0.88041000  0.67018000  1.0
  H  H24  1  0.42420000  0.78280000  0.83590000  1.0
  H  H25  1  0.49640000  0.76210000  0.91390000  1.0
  H  H26  1  0.52430000  0.92480000  0.82420000  1.0
  H  H27  1  0.45070000  0.95420000  0.76160000  1.0
  H  H28  1  0.75660000  0.80570000  0.05090000  1.0
  H  H29  1  0.63420000  0.75210000  0.00440000  1.0
  H  H30  1  0.65400000  0.91310000  0.90540000  1.0
  H  H31  1  0.95650000  0.00800000  0.55180000  1.0
  H  H32  1  0.03110000  0.01880000  0.62300000  1.0
  H  H33  1  0.03310000  0.19440000  0.52540000  1.0
  H  H34  1  0.96110000  0.17520000  0.44730000  1.0
  H  H35  1  0.15920000  0.05450000  0.63230000  1.0
  H  H36  1  0.16910000  0.26550000  0.68780000  1.0
  H  H37  1  0.27790000  0.14600000  0.74310000  1.0
  H  H38  1  0.10200000  0.06700000  0.65000000  1.0
  H  H39  1  0.92420000  0.28280000  0.83590000  1.0
  H  H40  1  0.99640000  0.26210000  0.91390000  1.0
  H  H41  1  0.02430000  0.42480000  0.82420000  1.0
  H  H42  1  0.95070000  0.45420000  0.76160000  1.0
  H  H43  1  0.25660000  0.30570000  0.05090000  1.0
  H  H44  1  0.13420000  0.25210000  0.00440000  1.0
  H  H45  1  0.15400000  0.41310000  0.90540000  1.0
  H  H46  1  0.45650000  0.50800000  0.55180000  1.0
  H  H47  1  0.53110000  0.51880000  0.62300000  1.0
  H  H48  1  0.53310000  0.69440000  0.52540000  1.0
  H  H49  1  0.46110000  0.67520000  0.44730000  1.0
  H  H50  1  0.65920000  0.55450000  0.63230000  1.0
  H  H51  1  0.66910000  0.76550000  0.68780000  1.0
  H  H52  1  0.77790000  0.64600000  0.74310000  1.0
  H  H53  1  0.60200000  0.56700000  0.65000000  1.0
  H  H54  1  0.57580000  0.78280000  0.66410000  1.0
  H  H55  1  0.50360000  0.76210000  0.58610000  1.0
  H  H56  1  0.47570000  0.92480000  0.67580000  1.0
  H  H57  1  0.54930000  0.95420000  0.73840000  1.0
  H  H58  1  0.24340000  0.80570000  0.44910000  1.0
  H  H59  1  0.36580000  0.75210000  0.49560000  1.0
  H  H60  1  0.34600000  0.91310000  0.59460000  1.0
  H  H61  1  0.04350000  0.00800000  0.94820000  1.0
  H  H62  1  0.96890000  0.01880000  0.87700000  1.0
  H  H63  1  0.96690000  0.19440000  0.97460000  1.0
  H  H64  1  0.03890000  0.17520000  0.05270000  1.0
  H  H65  1  0.84080000  0.05450000  0.86770000  1.0
  H  H66  1  0.83090000  0.26550000  0.81220000  1.0
  H  H67  1  0.72210000  0.14600000  0.75690000  1.0
  H  H68  1  0.89800000  0.06700000  0.85000000  1.0
  H  H69  1  0.07580000  0.28280000  0.66410000  1.0
  H  H70  1  0.00360000  0.26210000  0.58610000  1.0
  H  H71  1  0.97570000  0.42480000  0.67580000  1.0
  H  H72  1  0.04930000  0.45420000  0.73840000  1.0
  H  H73  1  0.74340000  0.30570000  0.44910000  1.0
  H  H74  1  0.86580000  0.25210000  0.49560000  1.0
  H  H75  1  0.84600000  0.41310000  0.59460000  1.0
  H  H76  1  0.54350000  0.50800000  0.94820000  1.0
  H  H77  1  0.46890000  0.51880000  0.87700000  1.0
  H  H78  1  0.46690000  0.69440000  0.97460000  1.0
  H  H79  1  0.53890000  0.67520000  0.05270000  1.0
  H  H80  1  0.34080000  0.55450000  0.86770000  1.0
  H  H81  1  0.33090000  0.76550000  0.81220000  1.0
  H  H82  1  0.22210000  0.64600000  0.75690000  1.0
  H  H83  1  0.39800000  0.56700000  0.85000000  1.0
  H  H84  1  0.57580000  0.21720000  0.16410000  1.0
  H  H85  1  0.50360000  0.23790000  0.08610000  1.0
  H  H86  1  0.47570000  0.07520000  0.17580000  1.0
  H  H87  1  0.54930000  0.04580000  0.23840000  1.0
  H  H88  1  0.24340000  0.19430000  0.94910000  1.0
  H  H89  1  0.36580000  0.24790000  0.99560000  1.0
  H  H90  1  0.34600000  0.08690000  0.09460000  1.0
  H  H91  1  0.04350000  0.99200000  0.44820000  1.0
  H  H92  1  0.96890000  0.98120000  0.37700000  1.0
  H  H93  1  0.96690000  0.80560000  0.47460000  1.0
  H  H94  1  0.03890000  0.82480000  0.55270000  1.0
  H  H95  1  0.84080000  0.94550000  0.36770000  1.0
  H  H96  1  0.83090000  0.73450000  0.31220000  1.0
  H  H97  1  0.72210000  0.85400000  0.25690000  1.0
  H  H98  1  0.89800000  0.93300000  0.35000000  1.0
  H  H99  1  0.07580000  0.71720000  0.16410000  1.0
  H  H100  1  0.00360000  0.73790000  0.08610000  1.0
  H  H101  1  0.97570000  0.57520000  0.17580000  1.0
  H  H102  1  0.04930000  0.54580000  0.23840000  1.0
  H  H103  1  0.74340000  0.69430000  0.94910000  1.0
  H  H104  1  0.86580000  0.74790000  0.99560000  1.0
  H  H105  1  0.84600000  0.58690000  0.09460000  1.0
  H  H106  1  0.54350000  0.49200000  0.44820000  1.0
  H  H107  1  0.46890000  0.48120000  0.37700000  1.0
  H  H108  1  0.46690000  0.30560000  0.47460000  1.0
  H  H109  1  0.53890000  0.32480000  0.55270000  1.0
  H  H110  1  0.34080000  0.44550000  0.36770000  1.0
  H  H111  1  0.33090000  0.23450000  0.31220000  1.0
  H  H112  1  0.22210000  0.35400000  0.25690000  1.0
  H  H113  1  0.39800000  0.43300000  0.35000000  1.0
  H  H114  1  0.42420000  0.21720000  0.33590000  1.0
  H  H115  1  0.49640000  0.23790000  0.41390000  1.0
  H  H116  1  0.52430000  0.07520000  0.32420000  1.0
  H  H117  1  0.45070000  0.04580000  0.26160000  1.0
  H  H118  1  0.75660000  0.19430000  0.55090000  1.0
  H  H119  1  0.63420000  0.24790000  0.50440000  1.0
  H  H120  1  0.65400000  0.08690000  0.40540000  1.0
  H  H121  1  0.95650000  0.99200000  0.05180000  1.0
  H  H122  1  0.03110000  0.98120000  0.12300000  1.0
  H  H123  1  0.03310000  0.80560000  0.02540000  1.0
  H  H124  1  0.96110000  0.82480000  0.94730000  1.0
  H  H125  1  0.15920000  0.94550000  0.13230000  1.0
  H  H126  1  0.16910000  0.73450000  0.18780000  1.0
  H  H127  1  0.27790000  0.85400000  0.24310000  1.0
  H  H128  1  0.10200000  0.93300000  0.15000000  1.0
  H  H129  1  0.92420000  0.71720000  0.33590000  1.0
  H  H130  1  0.99640000  0.73790000  0.41390000  1.0
  H  H131  1  0.02430000  0.57520000  0.32420000  1.0
  H  H132  1  0.95070000  0.54580000  0.26160000  1.0
  H  H133  1  0.25660000  0.69430000  0.55090000  1.0
  H  H134  1  0.13420000  0.74790000  0.50440000  1.0
  H  H135  1  0.15400000  0.58690000  0.40540000  1.0
  H  H136  1  0.45650000  0.49200000  0.05180000  1.0
  H  H137  1  0.53110000  0.48120000  0.12300000  1.0
  H  H138  1  0.53310000  0.30560000  0.02540000  1.0
  H  H139  1  0.46110000  0.32480000  0.94730000  1.0
  H  H140  1  0.65920000  0.44550000  0.13230000  1.0
  H  H141  1  0.66910000  0.23450000  0.18780000  1.0
  H  H142  1  0.77790000  0.35400000  0.24310000  1.0
  H  H143  1  0.60200000  0.43300000  0.15000000  1.0
  C  C144  1  0.37890000  0.88880000  0.75470000  1.0
  C  C145  1  0.42770000  0.87710000  0.79760000  1.0
  C  C146  1  0.44470000  0.81680000  0.83870000  1.0
  C  C147  1  0.48810000  0.80020000  0.88350000  1.0
  C  C148  1  0.51760000  0.84580000  0.87850000  1.0
  C  C149  1  0.50390000  0.89960000  0.83070000  1.0
  C  C150  1  0.56710000  0.88610000  0.88270000  1.0
  C  C151  1  0.45930000  0.91610000  0.79190000  1.0
  C  C152  1  0.56580000  0.83200000  0.92080000  1.0
  C  C153  1  0.74120000  0.91300000  0.96580000  1.0
  C  C154  1  0.71030000  0.86690000  0.97680000  1.0
  C  C155  1  0.72660000  0.81270000  0.02500000  1.0
  C  C156  1  0.69830000  0.76920000  0.03450000  1.0
  C  C157  1  0.65330000  0.78090000  0.99750000  1.0
  C  C158  1  0.63700000  0.83670000  0.94970000  1.0
  C  C159  1  0.66500000  0.87780000  0.93850000  1.0
  C  C160  1  0.71550000  0.70700000  0.08240000  1.0
  C  C161  1  0.90330000  0.08130000  0.44280000  1.0
  C  C162  1  0.95140000  0.09060000  0.49310000  1.0
  C  C163  1  0.97220000  0.04460000  0.54510000  1.0
  C  C164  1  0.01690000  0.05200000  0.58850000  1.0
  C  C165  1  0.04030000  0.10750000  0.58110000  1.0
  C  C166  1  0.01830000  0.15460000  0.52970000  1.0
  C  C167  1  0.97480000  0.14490000  0.48420000  1.0
  C  C168  1  0.08800000  0.11250000  0.62460000  1.0
  C  C169  1  0.24310000  0.01990000  0.68560000  1.0
  C  C170  1  0.22170000  0.08920000  0.68780000  1.0
  C  C171  1  0.17630000  0.09470000  0.65520000  1.0
  C  C172  1  0.15630000  0.15960000  0.65670000  1.0
  C  C173  1  0.18220000  0.22090000  0.68870000  1.0
  C  C174  1  0.22760000  0.21490000  0.72190000  1.0
  C  C175  1  0.24750000  0.14950000  0.72130000  1.0
  C  C176  1  0.25640000  0.27860000  0.75780000  1.0
  C  C177  1  0.87890000  0.38880000  0.75470000  1.0
  C  C178  1  0.92770000  0.37710000  0.79760000  1.0
  C  C179  1  0.94470000  0.31680000  0.83870000  1.0
  C  C180  1  0.98810000  0.30020000  0.88350000  1.0
  C  C181  1  0.01760000  0.34580000  0.87850000  1.0
  C  C182  1  0.00390000  0.39960000  0.83070000  1.0
  C  C183  1  0.06710000  0.38610000  0.88270000  1.0
  C  C184  1  0.95930000  0.41610000  0.79190000  1.0
  C  C185  1  0.06580000  0.33200000  0.92080000  1.0
  C  C186  1  0.24120000  0.41300000  0.96580000  1.0
  C  C187  1  0.21030000  0.36690000  0.97680000  1.0
  C  C188  1  0.22660000  0.31270000  0.02500000  1.0
  C  C189  1  0.19830000  0.26920000  0.03450000  1.0
  C  C190  1  0.15330000  0.28090000  0.99750000  1.0
  C  C191  1  0.13700000  0.33670000  0.94970000  1.0
  C  C192  1  0.16500000  0.37780000  0.93850000  1.0
  C  C193  1  0.21550000  0.20700000  0.08240000  1.0
  C  C194  1  0.40330000  0.58130000  0.44280000  1.0
  C  C195  1  0.45140000  0.59060000  0.49310000  1.0
  C  C196  1  0.47220000  0.54460000  0.54510000  1.0
  C  C197  1  0.51690000  0.55200000  0.58850000  1.0
  C  C198  1  0.54030000  0.60750000  0.58110000  1.0
  C  C199  1  0.51830000  0.65460000  0.52970000  1.0
  C  C200  1  0.47480000  0.64490000  0.48420000  1.0
  C  C201  1  0.58800000  0.61250000  0.62460000  1.0
  C  C202  1  0.74310000  0.51990000  0.68560000  1.0
  C  C203  1  0.72170000  0.58920000  0.68780000  1.0
  C  C204  1  0.67630000  0.59470000  0.65520000  1.0
  C  C205  1  0.65630000  0.65960000  0.65670000  1.0
  C  C206  1  0.68220000  0.72090000  0.68870000  1.0
  C  C207  1  0.72760000  0.71490000  0.72190000  1.0
  C  C208  1  0.74750000  0.64950000  0.72130000  1.0
  C  C209  1  0.75640000  0.77860000  0.75780000  1.0
  C  C210  1  0.62110000  0.88880000  0.74530000  1.0
  C  C211  1  0.57230000  0.87710000  0.70240000  1.0
  C  C212  1  0.55530000  0.81680000  0.66130000  1.0
  C  C213  1  0.51190000  0.80020000  0.61650000  1.0
  C  C214  1  0.48240000  0.84580000  0.62150000  1.0
  C  C215  1  0.49610000  0.89960000  0.66930000  1.0
  C  C216  1  0.43290000  0.88610000  0.61730000  1.0
  C  C217  1  0.54070000  0.91610000  0.70810000  1.0
  C  C218  1  0.43420000  0.83200000  0.57920000  1.0
  C  C219  1  0.25880000  0.91300000  0.53420000  1.0
  C  C220  1  0.28970000  0.86690000  0.52320000  1.0
  C  C221  1  0.27340000  0.81270000  0.47500000  1.0
  C  C222  1  0.30170000  0.76920000  0.46550000  1.0
  C  C223  1  0.34670000  0.78090000  0.50250000  1.0
  C  C224  1  0.36300000  0.83670000  0.55030000  1.0
  C  C225  1  0.33500000  0.87780000  0.56150000  1.0
  C  C226  1  0.28450000  0.70700000  0.41760000  1.0
  C  C227  1  0.09670000  0.08130000  0.05720000  1.0
  C  C228  1  0.04860000  0.09060000  0.00690000  1.0
  C  C229  1  0.02780000  0.04460000  0.95490000  1.0
  C  C230  1  0.98310000  0.05200000  0.91150000  1.0
  C  C231  1  0.95970000  0.10750000  0.91890000  1.0
  C  C232  1  0.98170000  0.15460000  0.97030000  1.0
  C  C233  1  0.02520000  0.14490000  0.01580000  1.0
  C  C234  1  0.91200000  0.11250000  0.87540000  1.0
  C  C235  1  0.75690000  0.01990000  0.81440000  1.0
  C  C236  1  0.77830000  0.08920000  0.81220000  1.0
  C  C237  1  0.82370000  0.09470000  0.84480000  1.0
  C  C238  1  0.84370000  0.15960000  0.84330000  1.0
  C  C239  1  0.81780000  0.22090000  0.81130000  1.0
  C  C240  1  0.77240000  0.21490000  0.77810000  1.0
  C  C241  1  0.75250000  0.14950000  0.77870000  1.0
  C  C242  1  0.74360000  0.27860000  0.74220000  1.0
  C  C243  1  0.12110000  0.38880000  0.74530000  1.0
  C  C244  1  0.07230000  0.37710000  0.70240000  1.0
  C  C245  1  0.05530000  0.31680000  0.66130000  1.0
  C  C246  1  0.01190000  0.30020000  0.61650000  1.0
  C  C247  1  0.98240000  0.34580000  0.62150000  1.0
  C  C248  1  0.99610000  0.39960000  0.66930000  1.0
  C  C249  1  0.93290000  0.38610000  0.61730000  1.0
  C  C250  1  0.04070000  0.41610000  0.70810000  1.0
  C  C251  1  0.93420000  0.33200000  0.57920000  1.0
  C  C252  1  0.75880000  0.41300000  0.53420000  1.0
  C  C253  1  0.78970000  0.36690000  0.52320000  1.0
  C  C254  1  0.77340000  0.31270000  0.47500000  1.0
  C  C255  1  0.80170000  0.26920000  0.46550000  1.0
  C  C256  1  0.84670000  0.28090000  0.50250000  1.0
  C  C257  1  0.86300000  0.33670000  0.55030000  1.0
  C  C258  1  0.83500000  0.37780000  0.56150000  1.0
  C  C259  1  0.78450000  0.20700000  0.41760000  1.0
  C  C260  1  0.59670000  0.58130000  0.05720000  1.0
  C  C261  1  0.54860000  0.59060000  0.00690000  1.0
  C  C262  1  0.52780000  0.54460000  0.95490000  1.0
  C  C263  1  0.48310000  0.55200000  0.91150000  1.0
  C  C264  1  0.45970000  0.60750000  0.91890000  1.0
  C  C265  1  0.48170000  0.65460000  0.97030000  1.0
  C  C266  1  0.52520000  0.64490000  0.01580000  1.0
  C  C267  1  0.41200000  0.61250000  0.87540000  1.0
  C  C268  1  0.25690000  0.51990000  0.81440000  1.0
  C  C269  1  0.27830000  0.58920000  0.81220000  1.0
  C  C270  1  0.32370000  0.59470000  0.84480000  1.0
  C  C271  1  0.34370000  0.65960000  0.84330000  1.0
  C  C272  1  0.31780000  0.72090000  0.81130000  1.0
  C  C273  1  0.27240000  0.71490000  0.77810000  1.0
  C  C274  1  0.25250000  0.64950000  0.77870000  1.0
  C  C275  1  0.24360000  0.77860000  0.74220000  1.0
  C  C276  1  0.62110000  0.11120000  0.24530000  1.0
  C  C277  1  0.57230000  0.12290000  0.20240000  1.0
  C  C278  1  0.55530000  0.18320000  0.16130000  1.0
  C  C279  1  0.51190000  0.19980000  0.11650000  1.0
  C  C280  1  0.48240000  0.15420000  0.12150000  1.0
  C  C281  1  0.49610000  0.10040000  0.16930000  1.0
  C  C282  1  0.43290000  0.11390000  0.11730000  1.0
  C  C283  1  0.54070000  0.08390000  0.20810000  1.0
  C  C284  1  0.43420000  0.16800000  0.07920000  1.0
  C  C285  1  0.25880000  0.08700000  0.03420000  1.0
  C  C286  1  0.28970000  0.13310000  0.02320000  1.0
  C  C287  1  0.27340000  0.18730000  0.97500000  1.0
  C  C288  1  0.30170000  0.23080000  0.96550000  1.0
  C  C289  1  0.34670000  0.21910000  0.00250000  1.0
  C  C290  1  0.36300000  0.16330000  0.05030000  1.0
  C  C291  1  0.33500000  0.12220000  0.06150000  1.0
  C  C292  1  0.28450000  0.29300000  0.91760000  1.0
  C  C293  1  0.09670000  0.91870000  0.55720000  1.0
  C  C294  1  0.04860000  0.90940000  0.50690000  1.0
  C  C295  1  0.02780000  0.95540000  0.45490000  1.0
  C  C296  1  0.98310000  0.94800000  0.41150000  1.0
  C  C297  1  0.95970000  0.89250000  0.41890000  1.0
  C  C298  1  0.98170000  0.84540000  0.47030000  1.0
  C  C299  1  0.02520000  0.85510000  0.51580000  1.0
  C  C300  1  0.91200000  0.88750000  0.37540000  1.0
  C  C301  1  0.75690000  0.98010000  0.31440000  1.0
  C  C302  1  0.77830000  0.91080000  0.31220000  1.0
  C  C303  1  0.82370000  0.90530000  0.34480000  1.0
  C  C304  1  0.84370000  0.84040000  0.34330000  1.0
  C  C305  1  0.81780000  0.77910000  0.31130000  1.0
  C  C306  1  0.77240000  0.78510000  0.27810000  1.0
  C  C307  1  0.75250000  0.85050000  0.27870000  1.0
  C  C308  1  0.74360000  0.72140000  0.24220000  1.0
  C  C309  1  0.12110000  0.61120000  0.24530000  1.0
  C  C310  1  0.07230000  0.62290000  0.20240000  1.0
  C  C311  1  0.05530000  0.68320000  0.16130000  1.0
  C  C312  1  0.01190000  0.69980000  0.11650000  1.0
  C  C313  1  0.98240000  0.65420000  0.12150000  1.0
  C  C314  1  0.99610000  0.60040000  0.16930000  1.0
  C  C315  1  0.93290000  0.61390000  0.11730000  1.0
  C  C316  1  0.04070000  0.58390000  0.20810000  1.0
  C  C317  1  0.93420000  0.66800000  0.07920000  1.0
  C  C318  1  0.75880000  0.58700000  0.03420000  1.0
  C  C319  1  0.78970000  0.63310000  0.02320000  1.0
  C  C320  1  0.77340000  0.68730000  0.97500000  1.0
  C  C321  1  0.80170000  0.73080000  0.96550000  1.0
  C  C322  1  0.84670000  0.71910000  0.00250000  1.0
  C  C323  1  0.86300000  0.66330000  0.05030000  1.0
  C  C324  1  0.83500000  0.62220000  0.06150000  1.0
  C  C325  1  0.78450000  0.79300000  0.91760000  1.0
  C  C326  1  0.59670000  0.41870000  0.55720000  1.0
  C  C327  1  0.54860000  0.40940000  0.50690000  1.0
  C  C328  1  0.52780000  0.45540000  0.45490000  1.0
  C  C329  1  0.48310000  0.44800000  0.41150000  1.0
  C  C330  1  0.45970000  0.39250000  0.41890000  1.0
  C  C331  1  0.48170000  0.34540000  0.47030000  1.0
  C  C332  1  0.52520000  0.35510000  0.51580000  1.0
  C  C333  1  0.41200000  0.38750000  0.37540000  1.0
  C  C334  1  0.25690000  0.48010000  0.31440000  1.0
  C  C335  1  0.27830000  0.41080000  0.31220000  1.0
  C  C336  1  0.32370000  0.40530000  0.34480000  1.0
  C  C337  1  0.34370000  0.34040000  0.34330000  1.0
  C  C338  1  0.31780000  0.27910000  0.31130000  1.0
  C  C339  1  0.27240000  0.28510000  0.27810000  1.0
  C  C340  1  0.25250000  0.35050000  0.27870000  1.0
  C  C341  1  0.24360000  0.22140000  0.24220000  1.0
  C  C342  1  0.37890000  0.11120000  0.25470000  1.0
  C  C343  1  0.42770000  0.12290000  0.29760000  1.0
  C  C344  1  0.44470000  0.18320000  0.33870000  1.0
  C  C345  1  0.48810000  0.19980000  0.38350000  1.0
  C  C346  1  0.51760000  0.15420000  0.37850000  1.0
  C  C347  1  0.50390000  0.10040000  0.33070000  1.0
  C  C348  1  0.56710000  0.11390000  0.38270000  1.0
  C  C349  1  0.45930000  0.08390000  0.29190000  1.0
  C  C350  1  0.56580000  0.16800000  0.42080000  1.0
  C  C351  1  0.74120000  0.08700000  0.46580000  1.0
  C  C352  1  0.71030000  0.13310000  0.47680000  1.0
  C  C353  1  0.72660000  0.18730000  0.52500000  1.0
  C  C354  1  0.69830000  0.23080000  0.53450000  1.0
  C  C355  1  0.65330000  0.21910000  0.49750000  1.0
  C  C356  1  0.63700000  0.16330000  0.44970000  1.0
  C  C357  1  0.66500000  0.12220000  0.43850000  1.0
  C  C358  1  0.71550000  0.29300000  0.58240000  1.0
  C  C359  1  0.90330000  0.91870000  0.94280000  1.0
  C  C360  1  0.95140000  0.90940000  0.99310000  1.0
  C  C361  1  0.97220000  0.95540000  0.04510000  1.0
  C  C362  1  0.01690000  0.94800000  0.08850000  1.0
  C  C363  1  0.04030000  0.89250000  0.08110000  1.0
  C  C364  1  0.01830000  0.84540000  0.02970000  1.0
  C  C365  1  0.97480000  0.85510000  0.98420000  1.0
  C  C366  1  0.08800000  0.88750000  0.12460000  1.0
  C  C367  1  0.24310000  0.98010000  0.18560000  1.0
  C  C368  1  0.22170000  0.91080000  0.18780000  1.0
  C  C369  1  0.17630000  0.90530000  0.15520000  1.0
  C  C370  1  0.15630000  0.84040000  0.15670000  1.0
  C  C371  1  0.18220000  0.77910000  0.18870000  1.0
  C  C372  1  0.22760000  0.78510000  0.22190000  1.0
  C  C373  1  0.24750000  0.85050000  0.22130000  1.0
  C  C374  1  0.25640000  0.72140000  0.25780000  1.0
  C  C375  1  0.87890000  0.61120000  0.25470000  1.0
  C  C376  1  0.92770000  0.62290000  0.29760000  1.0
  C  C377  1  0.94470000  0.68320000  0.33870000  1.0
  C  C378  1  0.98810000  0.69980000  0.38350000  1.0
  C  C379  1  0.01760000  0.65420000  0.37850000  1.0
  C  C380  1  0.00390000  0.60040000  0.33070000  1.0
  C  C381  1  0.06710000  0.61390000  0.38270000  1.0
  C  C382  1  0.95930000  0.58390000  0.29190000  1.0
  C  C383  1  0.06580000  0.66800000  0.42080000  1.0
  C  C384  1  0.24120000  0.58700000  0.46580000  1.0
  C  C385  1  0.21030000  0.63310000  0.47680000  1.0
  C  C386  1  0.22660000  0.68730000  0.52500000  1.0
  C  C387  1  0.19830000  0.73080000  0.53450000  1.0
  C  C388  1  0.15330000  0.71910000  0.49750000  1.0
  C  C389  1  0.13700000  0.66330000  0.44970000  1.0
  C  C390  1  0.16500000  0.62220000  0.43850000  1.0
  C  C391  1  0.21550000  0.79300000  0.58240000  1.0
  C  C392  1  0.40330000  0.41870000  0.94280000  1.0
  C  C393  1  0.45140000  0.40940000  0.99310000  1.0
  C  C394  1  0.47220000  0.45540000  0.04510000  1.0
  C  C395  1  0.51690000  0.44800000  0.08850000  1.0
  C  C396  1  0.54030000  0.39250000  0.08110000  1.0
  C  C397  1  0.51830000  0.34540000  0.02970000  1.0
  C  C398  1  0.47480000  0.35510000  0.98420000  1.0
  C  C399  1  0.58800000  0.38750000  0.12460000  1.0
  C  C400  1  0.74310000  0.48010000  0.18560000  1.0
  C  C401  1  0.72170000  0.41080000  0.18780000  1.0
  C  C402  1  0.67630000  0.40530000  0.15520000  1.0
  C  C403  1  0.65630000  0.34040000  0.15670000  1.0
  C  C404  1  0.68220000  0.27910000  0.18870000  1.0
  C  C405  1  0.72760000  0.28510000  0.22190000  1.0
  C  C406  1  0.74750000  0.35050000  0.22130000  1.0
  C  C407  1  0.75640000  0.22140000  0.25780000  1.0
  N  N408  1  0.59120000  0.85050000  0.91000000  1.0
  N  N409  1  0.11040000  0.16590000  0.62180000  1.0
  N  N410  1  0.09120000  0.35050000  0.91000000  1.0
  N  N411  1  0.61040000  0.66590000  0.62180000  1.0
  N  N412  1  0.40880000  0.85050000  0.59000000  1.0
  N  N413  1  0.88960000  0.16590000  0.87820000  1.0
  N  N414  1  0.90880000  0.35050000  0.59000000  1.0
  N  N415  1  0.38960000  0.66590000  0.87820000  1.0
  N  N416  1  0.40880000  0.14950000  0.09000000  1.0
  N  N417  1  0.88960000  0.83410000  0.37820000  1.0
  N  N418  1  0.90880000  0.64950000  0.09000000  1.0
  N  N419  1  0.38960000  0.33410000  0.37820000  1.0
  N  N420  1  0.59120000  0.14950000  0.41000000  1.0
  N  N421  1  0.11040000  0.83410000  0.12180000  1.0
  N  N422  1  0.09120000  0.64950000  0.41000000  1.0
  N  N423  1  0.61040000  0.33410000  0.12180000  1.0
  O  O424  1  0.35540000  0.84500000  0.75630000  1.0
  O  O425  1  0.36480000  0.94510000  0.71410000  1.0
  O  O426  1  0.35950000  0.88100000  0.70890000  1.0
  O  O427  1  0.78116000  0.91070000  0.00950000  1.0
  O  O428  1  0.72624000  0.95040000  0.91320000  1.0
  O  O429  1  0.68713000  0.66100000  0.07930000  1.0
  O  O430  1  0.75564000  0.70240000  0.12000000  1.0
  O  O431  1  0.88167000  0.03560000  0.45370000  1.0
  O  O432  1  0.88817000  0.12160000  0.39240000  1.0
  O  O433  1  0.21847000  0.96940000  0.64520000  1.0
  O  O434  1  0.28268000  0.00930000  0.72270000  1.0
  O  O435  1  0.29669000  0.26850000  0.78970000  1.0
  O  O436  1  0.23902000  0.34130000  0.75310000  1.0
  O  O437  1  0.35490000  0.87430000  0.79330000  1.0
  O  O438  1  0.85540000  0.34500000  0.75630000  1.0
  O  O439  1  0.86480000  0.44510000  0.71410000  1.0
  O  O440  1  0.85950000  0.38100000  0.70890000  1.0
  O  O441  1  0.28116000  0.41070000  0.00950000  1.0
  O  O442  1  0.22624000  0.45040000  0.91320000  1.0
  O  O443  1  0.18713000  0.16100000  0.07930000  1.0
  O  O444  1  0.25564000  0.20240000  0.12000000  1.0
  O  O445  1  0.38167000  0.53560000  0.45370000  1.0
  O  O446  1  0.38817000  0.62160000  0.39240000  1.0
  O  O447  1  0.71847000  0.46940000  0.64520000  1.0
  O  O448  1  0.78268000  0.50930000  0.72270000  1.0
  O  O449  1  0.79669000  0.76850000  0.78970000  1.0
  O  O450  1  0.73902000  0.84130000  0.75310000  1.0
  O  O451  1  0.85490000  0.37430000  0.79330000  1.0
  O  O452  1  0.64460000  0.84500000  0.74370000  1.0
  O  O453  1  0.63520000  0.94510000  0.78590000  1.0
  O  O454  1  0.64050000  0.88100000  0.79110000  1.0
  O  O455  1  0.21884000  0.91070000  0.49050000  1.0
  O  O456  1  0.27376000  0.95040000  0.58680000  1.0
  O  O457  1  0.31287000  0.66100000  0.42070000  1.0
  O  O458  1  0.24436000  0.70240000  0.38000000  1.0
  O  O459  1  0.11833000  0.03560000  0.04630000  1.0
  O  O460  1  0.11183000  0.12160000  0.10760000  1.0
  O  O461  1  0.78153000  0.96940000  0.85480000  1.0
  O  O462  1  0.71732000  0.00930000  0.77730000  1.0
  O  O463  1  0.70331000  0.26850000  0.71030000  1.0
  O  O464  1  0.76098000  0.34130000  0.74690000  1.0
  O  O465  1  0.64510000  0.87430000  0.70670000  1.0
  O  O466  1  0.14460000  0.34500000  0.74370000  1.0
  O  O467  1  0.13520000  0.44510000  0.78590000  1.0
  O  O468  1  0.14050000  0.38100000  0.79110000  1.0
  O  O469  1  0.71884000  0.41070000  0.49050000  1.0
  O  O470  1  0.77376000  0.45040000  0.58680000  1.0
  O  O471  1  0.81287000  0.16100000  0.42070000  1.0
  O  O472  1  0.74436000  0.20240000  0.38000000  1.0
  O  O473  1  0.61833000  0.53560000  0.04630000  1.0
  O  O474  1  0.61183000  0.62160000  0.10760000  1.0
  O  O475  1  0.28153000  0.46940000  0.85480000  1.0
  O  O476  1  0.21732000  0.50930000  0.77730000  1.0
  O  O477  1  0.20331000  0.76850000  0.71030000  1.0
  O  O478  1  0.26098000  0.84130000  0.74690000  1.0
  O  O479  1  0.14510000  0.37430000  0.70670000  1.0
  O  O480  1  0.64460000  0.15500000  0.24370000  1.0
  O  O481  1  0.63520000  0.05490000  0.28590000  1.0
  O  O482  1  0.64050000  0.11900000  0.29110000  1.0
  O  O483  1  0.21884000  0.08930000  0.99050000  1.0
  O  O484  1  0.27376000  0.04960000  0.08680000  1.0
  O  O485  1  0.31287000  0.33900000  0.92070000  1.0
  O  O486  1  0.24436000  0.29760000  0.88000000  1.0
  O  O487  1  0.11833000  0.96440000  0.54630000  1.0
  O  O488  1  0.11183000  0.87840000  0.60760000  1.0
  O  O489  1  0.78153000  0.03060000  0.35480000  1.0
  O  O490  1  0.71732000  0.99070000  0.27730000  1.0
  O  O491  1  0.70331000  0.73150000  0.21030000  1.0
  O  O492  1  0.76098000  0.65870000  0.24690000  1.0
  O  O493  1  0.64510000  0.12570000  0.20670000  1.0
  O  O494  1  0.14460000  0.65500000  0.24370000  1.0
  O  O495  1  0.13520000  0.55490000  0.28590000  1.0
  O  O496  1  0.14050000  0.61900000  0.29110000  1.0
  O  O497  1  0.71884000  0.58930000  0.99050000  1.0
  O  O498  1  0.77376000  0.54960000  0.08680000  1.0
  O  O499  1  0.81287000  0.83900000  0.92070000  1.0
  O  O500  1  0.74436000  0.79760000  0.88000000  1.0
  O  O501  1  0.61833000  0.46440000  0.54630000  1.0
  O  O502  1  0.61183000  0.37840000  0.60760000  1.0
  O  O503  1  0.28153000  0.53060000  0.35480000  1.0
  O  O504  1  0.21732000  0.49070000  0.27730000  1.0
  O  O505  1  0.20331000  0.23150000  0.21030000  1.0
  O  O506  1  0.26098000  0.15870000  0.24690000  1.0
  O  O507  1  0.14510000  0.62570000  0.20670000  1.0
  O  O508  1  0.35540000  0.15500000  0.25630000  1.0
  O  O509  1  0.36480000  0.05490000  0.21410000  1.0
  O  O510  1  0.35950000  0.11900000  0.20890000  1.0
  O  O511  1  0.78116000  0.08930000  0.50950000  1.0
  O  O512  1  0.72624000  0.04960000  0.41320000  1.0
  O  O513  1  0.68713000  0.33900000  0.57930000  1.0
  O  O514  1  0.75564000  0.29760000  0.62000000  1.0
  O  O515  1  0.88167000  0.96440000  0.95370000  1.0
  O  O516  1  0.88817000  0.87840000  0.89240000  1.0
  O  O517  1  0.21847000  0.03060000  0.14520000  1.0
  O  O518  1  0.28268000  0.99070000  0.22270000  1.0
  O  O519  1  0.29669000  0.73150000  0.28970000  1.0
  O  O520  1  0.23902000  0.65870000  0.25310000  1.0
  O  O521  1  0.35490000  0.12570000  0.29330000  1.0
  O  O522  1  0.85540000  0.65500000  0.25630000  1.0
  O  O523  1  0.86480000  0.55490000  0.21410000  1.0
  O  O524  1  0.85950000  0.61900000  0.20890000  1.0
  O  O525  1  0.28116000  0.58930000  0.50950000  1.0
  O  O526  1  0.22624000  0.54960000  0.41320000  1.0
  O  O527  1  0.18713000  0.83900000  0.57930000  1.0
  O  O528  1  0.25564000  0.79760000  0.62000000  1.0
  O  O529  1  0.38167000  0.46440000  0.95370000  1.0
  O  O530  1  0.38817000  0.37840000  0.89240000  1.0
  O  O531  1  0.71847000  0.53060000  0.14520000  1.0
  O  O532  1  0.78268000  0.49070000  0.22270000  1.0
  O  O533  1  0.79669000  0.23150000  0.28970000  1.0
  O  O534  1  0.73902000  0.15870000  0.25310000  1.0
  O  O535  1  0.85490000  0.62570000  0.29330000  1.0
