# generated using pymatgen
data_Ag4H3C8N2O2F3
_symmetry_space_group_name_H-M   'P 1'
_cell_length_a   15.52390000
_cell_length_b   16.06130000
_cell_length_c   17.23220000
_cell_angle_alpha   90.00000000
_cell_angle_beta   90.00000000
_cell_angle_gamma   90.00000000
_symmetry_Int_Tables_number   1
_chemical_formula_structural   Ag4H3C8N2O2F3
_chemical_formula_sum   'Ag32 H24 C64 N16 O16 F24'
_cell_volume   4296.57361449
_cell_formula_units_Z   8
loop_
 _symmetry_equiv_pos_site_id
 _symmetry_equiv_pos_as_xyz
  1  'x, y, z'
loop_
 _atom_site_type_symbol
 _atom_site_label
 _atom_site_symmetry_multiplicity
 _atom_site_fract_x
 _atom_site_fract_y
 _atom_site_fract_z
 _atom_site_occupancy
  Ag  Ag0  1  0.74151000  0.54672000  0.59753000  1
  Ag  Ag1  1  0.28100000  0.79719000  0.48171000  1
  Ag  Ag2  1  0.31157000  0.68434000  0.81665000  1
  Ag  Ag3  1  0.69010000  0.82417000  0.64168000  1
  Ag  Ag4  1  0.75849000  0.45328000  0.09753000  1
  Ag  Ag5  1  0.21900000  0.20281000  0.98171000  1
  Ag  Ag6  1  0.18843000  0.31566000  0.31665000  1
  Ag  Ag7  1  0.80990000  0.17583000  0.14168000  1
  Ag  Ag8  1  0.25849000  0.04672000  0.90247000  1
  Ag  Ag9  1  0.71900000  0.29719000  0.01829000  1
  Ag  Ag10  1  0.68843000  0.18434000  0.68335000  1
  Ag  Ag11  1  0.30990000  0.32417000  0.85832000  1
  Ag  Ag12  1  0.24151000  0.95328000  0.40247000  1
  Ag  Ag13  1  0.78100000  0.70281000  0.51829000  1
  Ag  Ag14  1  0.81157000  0.81566000  0.18335000  1
  Ag  Ag15  1  0.19010000  0.67583000  0.35832000  1
  Ag  Ag16  1  0.25849000  0.45328000  0.40247000  1
  Ag  Ag17  1  0.71900000  0.20281000  0.51829000  1
  Ag  Ag18  1  0.68843000  0.31566000  0.18335000  1
  Ag  Ag19  1  0.30990000  0.17583000  0.35832000  1
  Ag  Ag20  1  0.24151000  0.54672000  0.90247000  1
  Ag  Ag21  1  0.78100000  0.79719000  0.01829000  1
  Ag  Ag22  1  0.81157000  0.68434000  0.68335000  1
  Ag  Ag23  1  0.19010000  0.82417000  0.85832000  1
  Ag  Ag24  1  0.74151000  0.95328000  0.09753000  1
  Ag  Ag25  1  0.28100000  0.70281000  0.98171000  1
  Ag  Ag26  1  0.31157000  0.81566000  0.31665000  1
  Ag  Ag27  1  0.69010000  0.67583000  0.14168000  1
  Ag  Ag28  1  0.75849000  0.04672000  0.59753000  1
  Ag  Ag29  1  0.21900000  0.29719000  0.48171000  1
  Ag  Ag30  1  0.18843000  0.18434000  0.81665000  1
  Ag  Ag31  1  0.80990000  0.32417000  0.64168000  1
  H  H32  1  0.49760000  0.74240000  0.51850000  1
  H  H33  1  0.29040000  0.74230000  0.64450000  1
  H  H34  1  0.50350000  0.66750000  0.73980000  1
  H  H35  1  0.00240000  0.25760000  0.01850000  1
  H  H36  1  0.20960000  0.25770000  0.14450000  1
  H  H37  1  0.99650000  0.33250000  0.23980000  1
  H  H38  1  0.50240000  0.24240000  0.98150000  1
  H  H39  1  0.70960000  0.24230000  0.85550000  1
  H  H40  1  0.49650000  0.16750000  0.76020000  1
  H  H41  1  0.99760000  0.75760000  0.48150000  1
  H  H42  1  0.79040000  0.75770000  0.35550000  1
  H  H43  1  0.00350000  0.83250000  0.26020000  1
  H  H44  1  0.50240000  0.25760000  0.48150000  1
  H  H45  1  0.70960000  0.25770000  0.35550000  1
  H  H46  1  0.49650000  0.33250000  0.26020000  1
  H  H47  1  0.99760000  0.74240000  0.98150000  1
  H  H48  1  0.79040000  0.74230000  0.85550000  1
  H  H49  1  0.00350000  0.66750000  0.76020000  1
  H  H50  1  0.49760000  0.75760000  0.01850000  1
  H  H51  1  0.29040000  0.75770000  0.14450000  1
  H  H52  1  0.50350000  0.83250000  0.23980000  1
  H  H53  1  0.00240000  0.24240000  0.51850000  1
  H  H54  1  0.20960000  0.24230000  0.64450000  1
  H  H55  1  0.99650000  0.16750000  0.73980000  1
  C  C56  1  0.68680000  0.67040000  0.62050000  1
  C  C57  1  0.61050000  0.68860000  0.62260000  1
  C  C58  1  0.51870000  0.70260000  0.62830000  1
  C  C59  1  0.47010000  0.73250000  0.56560000  1
  C  C60  1  0.34920000  0.73200000  0.64010000  1
  C  C61  1  0.47390000  0.68820000  0.69700000  1
  C  C62  1  0.92720000  0.50770000  0.63500000  1
  C  C63  1  0.01150000  0.45970000  0.63310000  1
  C  C64  1  0.81320000  0.32960000  0.12050000  1
  C  C65  1  0.88950000  0.31140000  0.12260000  1
  C  C66  1  0.98130000  0.29740000  0.12830000  1
  C  C67  1  0.02990000  0.26750000  0.06560000  1
  C  C68  1  0.15080000  0.26800000  0.14010000  1
  C  C69  1  0.02610000  0.31180000  0.19700000  1
  C  C70  1  0.57280000  0.49230000  0.13500000  1
  C  C71  1  0.48850000  0.54030000  0.13310000  1
  C  C72  1  0.31320000  0.17040000  0.87950000  1
  C  C73  1  0.38950000  0.18860000  0.87740000  1
  C  C74  1  0.48130000  0.20260000  0.87170000  1
  C  C75  1  0.52990000  0.23250000  0.93440000  1
  C  C76  1  0.65080000  0.23200000  0.85990000  1
  C  C77  1  0.52610000  0.18820000  0.80300000  1
  C  C78  1  0.07280000  0.00770000  0.86500000  1
  C  C79  1  0.98850000  0.95970000  0.86690000  1
  C  C80  1  0.18680000  0.82960000  0.37950000  1
  C  C81  1  0.11050000  0.81140000  0.37740000  1
  C  C82  1  0.01870000  0.79740000  0.37170000  1
  C  C83  1  0.97010000  0.76750000  0.43440000  1
  C  C84  1  0.84920000  0.76800000  0.35990000  1
  C  C85  1  0.97390000  0.81180000  0.30300000  1
  C  C86  1  0.42720000  0.99230000  0.36500000  1
  C  C87  1  0.51150000  0.04030000  0.36690000  1
  C  C88  1  0.31320000  0.32960000  0.37950000  1
  C  C89  1  0.38950000  0.31140000  0.37740000  1
  C  C90  1  0.48130000  0.29740000  0.37170000  1
  C  C91  1  0.52990000  0.26750000  0.43440000  1
  C  C92  1  0.65080000  0.26800000  0.35990000  1
  C  C93  1  0.52610000  0.31180000  0.30300000  1
  C  C94  1  0.07280000  0.49230000  0.36500000  1
  C  C95  1  0.98850000  0.54030000  0.36690000  1
  C  C96  1  0.18680000  0.67040000  0.87950000  1
  C  C97  1  0.11050000  0.68860000  0.87740000  1
  C  C98  1  0.01870000  0.70260000  0.87170000  1
  C  C99  1  0.97010000  0.73250000  0.93440000  1
  C  C100  1  0.84920000  0.73200000  0.85990000  1
  C  C101  1  0.97390000  0.68820000  0.80300000  1
  C  C102  1  0.42720000  0.50770000  0.86500000  1
  C  C103  1  0.51150000  0.45970000  0.86690000  1
  C  C104  1  0.68680000  0.82960000  0.12050000  1
  C  C105  1  0.61050000  0.81140000  0.12260000  1
  C  C106  1  0.51870000  0.79740000  0.12830000  1
  C  C107  1  0.47010000  0.76750000  0.06560000  1
  C  C108  1  0.34920000  0.76800000  0.14010000  1
  C  C109  1  0.47390000  0.81180000  0.19700000  1
  C  C110  1  0.92720000  0.99230000  0.13500000  1
  C  C111  1  0.01150000  0.04030000  0.13310000  1
  C  C112  1  0.81320000  0.17040000  0.62050000  1
  C  C113  1  0.88950000  0.18860000  0.62260000  1
  C  C114  1  0.98130000  0.20260000  0.62830000  1
  C  C115  1  0.02990000  0.23250000  0.56560000  1
  C  C116  1  0.15080000  0.23200000  0.64010000  1
  C  C117  1  0.02610000  0.18820000  0.69700000  1
  C  C118  1  0.57280000  0.00770000  0.63500000  1
  C  C119  1  0.48850000  0.95970000  0.63310000  1
  N  N120  1  0.38570000  0.74720000  0.57120000  1
  N  N121  1  0.38940000  0.70330000  0.70330000  1
  N  N122  1  0.11430000  0.25280000  0.07120000  1
  N  N123  1  0.11060000  0.29670000  0.20330000  1
  N  N124  1  0.61430000  0.24720000  0.92880000  1
  N  N125  1  0.61060000  0.20330000  0.79670000  1
  N  N126  1  0.88570000  0.75280000  0.42880000  1
  N  N127  1  0.88940000  0.79670000  0.29670000  1
  N  N128  1  0.61430000  0.25280000  0.42880000  1
  N  N129  1  0.61060000  0.29670000  0.29670000  1
  N  N130  1  0.88570000  0.74720000  0.92880000  1
  N  N131  1  0.88940000  0.70330000  0.79670000  1
  N  N132  1  0.38570000  0.75280000  0.07120000  1
  N  N133  1  0.38940000  0.79670000  0.20330000  1
  N  N134  1  0.11430000  0.24720000  0.57120000  1
  N  N135  1  0.11060000  0.20330000  0.70330000  1
  O  O136  1  0.93420000  0.58290000  0.64350000  1
  O  O137  1  0.86165000  0.46480000  0.62890000  1
  O  O138  1  0.56580000  0.41710000  0.14350000  1
  O  O139  1  0.63835000  0.53520000  0.12890000  1
  O  O140  1  0.06580000  0.08290000  0.85650000  1
  O  O141  1  0.13835000  0.96480000  0.87110000  1
  O  O142  1  0.43420000  0.91710000  0.35650000  1
  O  O143  1  0.36165000  0.03520000  0.37110000  1
  O  O144  1  0.06580000  0.41710000  0.35650000  1
  O  O145  1  0.13835000  0.53520000  0.37110000  1
  O  O146  1  0.43420000  0.58290000  0.85650000  1
  O  O147  1  0.36165000  0.46480000  0.87110000  1
  O  O148  1  0.93420000  0.91710000  0.14350000  1
  O  O149  1  0.86165000  0.03520000  0.12890000  1
  O  O150  1  0.56580000  0.08290000  0.64350000  1
  O  O151  1  0.63835000  0.96480000  0.62890000  1
  F  F152  1  0.02060000  0.42650000  0.56040000  1
  F  F153  1  0.07810000  0.50240000  0.62580000  1
  F  F154  1  0.01310000  0.39320000  0.67600000  1
  F  F155  1  0.47940000  0.57350000  0.06040000  1
  F  F156  1  0.42190000  0.49760000  0.12580000  1
  F  F157  1  0.48690000  0.60680000  0.17600000  1
  F  F158  1  0.97940000  0.92650000  0.93960000  1
  F  F159  1  0.92190000  0.00240000  0.87420000  1
  F  F160  1  0.98690000  0.89320000  0.82400000  1
  F  F161  1  0.52060000  0.07350000  0.43960000  1
  F  F162  1  0.57810000  0.99760000  0.37420000  1
  F  F163  1  0.51310000  0.10680000  0.32400000  1
  F  F164  1  0.97940000  0.57350000  0.43960000  1
  F  F165  1  0.92190000  0.49760000  0.37420000  1
  F  F166  1  0.98690000  0.60680000  0.32400000  1
  F  F167  1  0.52060000  0.42650000  0.93960000  1
  F  F168  1  0.57810000  0.50240000  0.87420000  1
  F  F169  1  0.51310000  0.39320000  0.82400000  1
  F  F170  1  0.02060000  0.07350000  0.06040000  1
  F  F171  1  0.07810000  0.99760000  0.12580000  1
  F  F172  1  0.01310000  0.10680000  0.17600000  1
  F  F173  1  0.47940000  0.92650000  0.56040000  1
  F  F174  1  0.42190000  0.00240000  0.62580000  1
  F  F175  1  0.48690000  0.89320000  0.67600000  1
