# generated using pymatgen
data_Zn3H12C23O9
_symmetry_space_group_name_H-M   'P 1'
_cell_length_a   9.14250000
_cell_length_b   9.14250000
_cell_length_c   12.66300000
_cell_angle_alpha   90.00000000
_cell_angle_beta   90.00000000
_cell_angle_gamma   90.00000000
_symmetry_Int_Tables_number   1
_chemical_formula_structural   Zn3H12C23O9
_chemical_formula_sum   'Zn12 H48 C92 O36'
_cell_volume   1058.44073304
_cell_formula_units_Z   4
loop_
 _symmetry_equiv_pos_site_id
 _symmetry_equiv_pos_as_xyz
  1  'x, y, z'
loop_
 _atom_site_type_symbol
 _atom_site_label
 _atom_site_symmetry_multiplicity
 _atom_site_fract_x
 _atom_site_fract_y
 _atom_site_fract_z
 _atom_site_occupancy
  Zn  Zn0  1  0.03480000  0.95840000  0.37510000  1.0
  Zn  Zn1  1  0.96520000  0.04160000  0.87510000  1.0
  Zn  Zn2  1  0.04160000  0.03480000  0.62510000  1.0
  Zn  Zn3  1  0.95840000  0.96520000  0.12510000  1.0
  Zn  Zn4  1  0.96520000  0.95840000  0.62490000  1.0
  Zn  Zn5  1  0.03480000  0.04160000  0.12490000  1.0
  Zn  Zn6  1  0.95840000  0.03480000  0.37490000  1.0
  Zn  Zn7  1  0.04160000  0.96520000  0.87490000  1.0
  Zn  Zn8  1  0.03670000  0.03670000  0.37500000  1.0
  Zn  Zn9  1  0.96330000  0.96330000  0.87500000  1.0
  Zn  Zn10  1  0.96330000  0.03670000  0.62500000  1.0
  Zn  Zn11  1  0.03670000  0.96330000  0.12500000  1.0
  H  H12  1  0.49440000  0.04850000  0.40330000  1.0
  H  H13  1  0.74060000  0.05940000  0.40390000  1.0
  H  H14  1  0.52080000  0.03100000  0.40730000  1.0
  H  H15  1  0.26470000  0.03100000  0.40730000  1.0
  H  H16  1  0.49050000  0.95160000  0.40550000  1.0
  H  H17  1  0.73310000  0.94560000  0.40780000  1.0
  H  H18  1  0.50560000  0.95150000  0.90330000  1.0
  H  H19  1  0.25940000  0.94060000  0.90390000  1.0
  H  H20  1  0.47920000  0.96900000  0.90730000  1.0
  H  H21  1  0.73530000  0.96900000  0.90730000  1.0
  H  H22  1  0.50950000  0.04840000  0.90550000  1.0
  H  H23  1  0.26690000  0.05440000  0.90780000  1.0
  H  H24  1  0.95150000  0.49440000  0.65330000  1.0
  H  H25  1  0.94060000  0.74060000  0.65390000  1.0
  H  H26  1  0.96900000  0.52080000  0.65730000  1.0
  H  H27  1  0.96900000  0.26470000  0.65730000  1.0
  H  H28  1  0.04840000  0.49050000  0.65550000  1.0
  H  H29  1  0.05440000  0.73310000  0.65780000  1.0
  H  H30  1  0.04850000  0.50560000  0.15330000  1.0
  H  H31  1  0.05940000  0.25940000  0.15390000  1.0
  H  H32  1  0.03100000  0.47920000  0.15730000  1.0
  H  H33  1  0.03100000  0.73530000  0.15730000  1.0
  H  H34  1  0.95160000  0.50950000  0.15550000  1.0
  H  H35  1  0.94560000  0.26690000  0.15780000  1.0
  H  H36  1  0.50560000  0.04850000  0.59670000  1.0
  H  H37  1  0.25940000  0.05940000  0.59610000  1.0
  H  H38  1  0.47920000  0.03100000  0.59270000  1.0
  H  H39  1  0.73530000  0.03100000  0.59270000  1.0
  H  H40  1  0.50950000  0.95160000  0.59450000  1.0
  H  H41  1  0.26690000  0.94560000  0.59220000  1.0
  H  H42  1  0.49440000  0.95150000  0.09670000  1.0
  H  H43  1  0.74060000  0.94060000  0.09610000  1.0
  H  H44  1  0.52080000  0.96900000  0.09270000  1.0
  H  H45  1  0.26470000  0.96900000  0.09270000  1.0
  H  H46  1  0.49050000  0.04840000  0.09450000  1.0
  H  H47  1  0.73310000  0.05440000  0.09220000  1.0
  H  H48  1  0.04850000  0.49440000  0.34670000  1.0
  H  H49  1  0.05940000  0.74060000  0.34610000  1.0
  H  H50  1  0.03100000  0.52080000  0.34270000  1.0
  H  H51  1  0.03100000  0.26470000  0.34270000  1.0
  H  H52  1  0.95160000  0.49050000  0.34450000  1.0
  H  H53  1  0.94560000  0.73310000  0.34220000  1.0
  H  H54  1  0.95150000  0.50560000  0.84670000  1.0
  H  H55  1  0.94060000  0.25940000  0.84610000  1.0
  H  H56  1  0.96900000  0.47920000  0.84270000  1.0
  H  H57  1  0.96900000  0.73530000  0.84270000  1.0
  H  H58  1  0.04840000  0.50950000  0.84450000  1.0
  H  H59  1  0.05440000  0.26690000  0.84220000  1.0
  C  C60  1  0.54500000  0.03000000  0.34100000  1.0
  C  C61  1  0.69100000  0.03400000  0.34200000  1.0
  C  C62  1  0.47000000  0.01500000  0.34470000  1.0
  C  C63  1  0.31800000  0.00900000  0.34600000  1.0
  C  C64  1  0.24200000  0.99000000  0.25200000  1.0
  C  C65  1  0.31700000  0.97000000  0.15700000  1.0
  C  C66  1  0.46900000  0.97800000  0.15600000  1.0
  C  C67  1  0.54200000  0.97000000  0.34400000  1.0
  C  C68  1  0.68500000  0.96800000  0.34500000  1.0
  C  C69  1  0.45500000  0.97000000  0.84100000  1.0
  C  C70  1  0.30900000  0.96600000  0.84200000  1.0
  C  C71  1  0.53000000  0.98500000  0.84470000  1.0
  C  C72  1  0.68200000  0.99100000  0.84600000  1.0
  C  C73  1  0.75800000  0.01000000  0.75200000  1.0
  C  C74  1  0.68300000  0.03000000  0.65700000  1.0
  C  C75  1  0.53100000  0.02200000  0.65600000  1.0
  C  C76  1  0.45800000  0.03000000  0.84400000  1.0
  C  C77  1  0.31500000  0.03200000  0.84500000  1.0
  C  C78  1  0.97000000  0.54500000  0.59100000  1.0
  C  C79  1  0.96600000  0.69100000  0.59200000  1.0
  C  C80  1  0.98500000  0.47000000  0.59470000  1.0
  C  C81  1  0.99100000  0.31800000  0.59600000  1.0
  C  C82  1  0.01000000  0.24200000  0.50200000  1.0
  C  C83  1  0.03000000  0.31700000  0.40700000  1.0
  C  C84  1  0.02200000  0.46900000  0.40600000  1.0
  C  C85  1  0.03000000  0.54200000  0.59400000  1.0
  C  C86  1  0.03200000  0.68500000  0.59500000  1.0
  C  C87  1  0.03000000  0.45500000  0.09100000  1.0
  C  C88  1  0.03400000  0.30900000  0.09200000  1.0
  C  C89  1  0.01500000  0.53000000  0.09470000  1.0
  C  C90  1  0.00900000  0.68200000  0.09600000  1.0
  C  C91  1  0.99000000  0.75800000  0.00200000  1.0
  C  C92  1  0.97000000  0.68300000  0.90700000  1.0
  C  C93  1  0.97800000  0.53100000  0.90600000  1.0
  C  C94  1  0.97000000  0.45800000  0.09400000  1.0
  C  C95  1  0.96800000  0.31500000  0.09500000  1.0
  C  C96  1  0.45500000  0.03000000  0.65900000  1.0
  C  C97  1  0.30900000  0.03400000  0.65800000  1.0
  C  C98  1  0.53000000  0.01500000  0.65530000  1.0
  C  C99  1  0.68200000  0.00900000  0.65400000  1.0
  C  C100  1  0.75800000  0.99000000  0.74800000  1.0
  C  C101  1  0.68300000  0.97000000  0.84300000  1.0
  C  C102  1  0.53100000  0.97800000  0.84400000  1.0
  C  C103  1  0.45800000  0.97000000  0.65600000  1.0
  C  C104  1  0.31500000  0.96800000  0.65500000  1.0
  C  C105  1  0.54500000  0.97000000  0.15900000  1.0
  C  C106  1  0.69100000  0.96600000  0.15800000  1.0
  C  C107  1  0.47000000  0.98500000  0.15530000  1.0
  C  C108  1  0.31800000  0.99100000  0.15400000  1.0
  C  C109  1  0.24200000  0.01000000  0.24800000  1.0
  C  C110  1  0.31700000  0.03000000  0.34300000  1.0
  C  C111  1  0.46900000  0.02200000  0.34400000  1.0
  C  C112  1  0.54200000  0.03000000  0.15600000  1.0
  C  C113  1  0.68500000  0.03200000  0.15500000  1.0
  C  C114  1  0.03000000  0.54500000  0.40900000  1.0
  C  C115  1  0.03400000  0.69100000  0.40800000  1.0
  C  C116  1  0.01500000  0.47000000  0.40530000  1.0
  C  C117  1  0.00900000  0.31800000  0.40400000  1.0
  C  C118  1  0.99000000  0.24200000  0.49800000  1.0
  C  C119  1  0.97000000  0.31700000  0.59300000  1.0
  C  C120  1  0.97800000  0.46900000  0.59400000  1.0
  C  C121  1  0.97000000  0.54200000  0.40600000  1.0
  C  C122  1  0.96800000  0.68500000  0.40500000  1.0
  C  C123  1  0.97000000  0.45500000  0.90900000  1.0
  C  C124  1  0.96600000  0.30900000  0.90800000  1.0
  C  C125  1  0.98500000  0.53000000  0.90530000  1.0
  C  C126  1  0.99100000  0.68200000  0.90400000  1.0
  C  C127  1  0.01000000  0.75800000  0.99800000  1.0
  C  C128  1  0.03000000  0.68300000  0.09300000  1.0
  C  C129  1  0.02200000  0.53100000  0.09400000  1.0
  C  C130  1  0.03000000  0.45800000  0.90600000  1.0
  C  C131  1  0.03200000  0.31500000  0.90500000  1.0
  C  C132  1  0.30100000  0.00000000  0.25000000  1.0
  C  C133  1  0.46400000  0.00000000  0.25000000  1.0
  C  C134  1  0.77100000  0.00000000  0.25000000  1.0
  C  C135  1  0.73100000  0.00000000  0.25000000  1.0
  C  C136  1  0.54600000  0.00000000  0.25000000  1.0
  C  C137  1  0.69900000  0.00000000  0.75000000  1.0
  C  C138  1  0.53600000  0.00000000  0.75000000  1.0
  C  C139  1  0.22900000  0.00000000  0.75000000  1.0
  C  C140  1  0.26900000  0.00000000  0.75000000  1.0
  C  C141  1  0.45400000  0.00000000  0.75000000  1.0
  C  C142  1  0.00000000  0.30100000  0.50000000  1.0
  C  C143  1  0.00000000  0.46400000  0.50000000  1.0
  C  C144  1  0.00000000  0.77100000  0.50000000  1.0
  C  C145  1  0.00000000  0.73100000  0.50000000  1.0
  C  C146  1  0.00000000  0.54600000  0.50000000  1.0
  C  C147  1  0.00000000  0.69900000  0.00000000  1.0
  C  C148  1  0.00000000  0.53600000  0.00000000  1.0
  C  C149  1  0.00000000  0.22900000  0.00000000  1.0
  C  C150  1  0.00000000  0.26900000  0.00000000  1.0
  C  C151  1  0.00000000  0.45400000  0.00000000  1.0
  O  O152  1  0.23700000  0.03200000  0.33680000  1.0
  O  O153  1  0.07900000  0.03000000  0.24800000  1.0
  O  O154  1  0.75500000  0.00200000  0.34200000  1.0
  O  O155  1  0.23900000  0.97700000  0.33710000  1.0
  O  O156  1  0.76300000  0.96800000  0.83680000  1.0
  O  O157  1  0.92100000  0.97000000  0.74800000  1.0
  O  O158  1  0.24500000  0.99800000  0.84200000  1.0
  O  O159  1  0.76100000  0.02300000  0.83710000  1.0
  O  O160  1  0.96800000  0.23700000  0.58680000  1.0
  O  O161  1  0.97000000  0.07900000  0.49800000  1.0
  O  O162  1  0.99800000  0.75500000  0.59200000  1.0
  O  O163  1  0.02300000  0.23900000  0.58710000  1.0
  O  O164  1  0.03200000  0.76300000  0.08680000  1.0
  O  O165  1  0.03000000  0.92100000  0.99800000  1.0
  O  O166  1  0.00200000  0.24500000  0.09200000  1.0
  O  O167  1  0.97700000  0.76100000  0.08710000  1.0
  O  O168  1  0.76300000  0.03200000  0.66320000  1.0
  O  O169  1  0.92100000  0.03000000  0.75200000  1.0
  O  O170  1  0.24500000  0.00200000  0.65800000  1.0
  O  O171  1  0.76100000  0.97700000  0.66290000  1.0
  O  O172  1  0.23700000  0.96800000  0.16320000  1.0
  O  O173  1  0.07900000  0.97000000  0.25200000  1.0
  O  O174  1  0.75500000  0.99800000  0.15800000  1.0
  O  O175  1  0.23900000  0.02300000  0.16290000  1.0
  O  O176  1  0.03200000  0.23700000  0.41320000  1.0
  O  O177  1  0.03000000  0.07900000  0.50200000  1.0
  O  O178  1  0.00200000  0.75500000  0.40800000  1.0
  O  O179  1  0.97700000  0.23900000  0.41290000  1.0
  O  O180  1  0.96800000  0.76300000  0.91320000  1.0
  O  O181  1  0.97000000  0.92100000  0.00200000  1.0
  O  O182  1  0.99800000  0.24500000  0.90800000  1.0
  O  O183  1  0.02300000  0.76100000  0.91290000  1.0
  O  O184  1  0.91690000  0.00000000  0.25000000  1.0
  O  O185  1  0.08310000  0.00000000  0.75000000  1.0
  O  O186  1  0.00000000  0.91690000  0.50000000  1.0
  O  O187  1  0.00000000  0.08310000  0.00000000  1.0
