# generated using pymatgen
data_MgH3(CO)4
_symmetry_space_group_name_H-M   'P 1'
_cell_length_a   25.94340000
_cell_length_b   25.94340000
_cell_length_c   6.81890000
_cell_angle_alpha   90.00000000
_cell_angle_beta   90.00000000
_cell_angle_gamma   120.00000000
_symmetry_Int_Tables_number   1
_chemical_formula_structural   MgH3(CO)4
_chemical_formula_sum   'Mg18 H54 C72 O72'
_cell_volume   3974.64858267
_cell_formula_units_Z   18
loop_
 _symmetry_equiv_pos_site_id
 _symmetry_equiv_pos_as_xyz
  1  'x, y, z'
loop_
 _atom_site_type_symbol
 _atom_site_label
 _atom_site_symmetry_multiplicity
 _atom_site_fract_x
 _atom_site_fract_y
 _atom_site_fract_z
 _atom_site_occupancy
  Mg  Mg0  1  0.36784000  0.05165000  0.51949000  1.0
  Mg  Mg1  1  0.63216000  0.94835000  0.48051000  1.0
  Mg  Mg2  1  0.94835000  0.31619000  0.51949000  1.0
  Mg  Mg3  1  0.05165000  0.68381000  0.48051000  1.0
  Mg  Mg4  1  0.68381000  0.63216000  0.51949000  1.0
  Mg  Mg5  1  0.31619000  0.36784000  0.48051000  1.0
  Mg  Mg6  1  0.03451000  0.38498000  0.85282000  1.0
  Mg  Mg7  1  0.29883000  0.28168000  0.81384000  1.0
  Mg  Mg8  1  0.61502000  0.64952000  0.85282000  1.0
  Mg  Mg9  1  0.71832000  0.01714000  0.81384000  1.0
  Mg  Mg10  1  0.35048000  0.96549000  0.85282000  1.0
  Mg  Mg11  1  0.98286000  0.70117000  0.81384000  1.0
  Mg  Mg12  1  0.70117000  0.71832000  0.18616000  1.0
  Mg  Mg13  1  0.96549000  0.61502000  0.14718000  1.0
  Mg  Mg14  1  0.28168000  0.98286000  0.18616000  1.0
  Mg  Mg15  1  0.38498000  0.35048000  0.14718000  1.0
  Mg  Mg16  1  0.01714000  0.29883000  0.18616000  1.0
  Mg  Mg17  1  0.64952000  0.03451000  0.14718000  1.0
  H  H18  1  0.36080000  0.18787000  0.84054000  1.0
  H  H19  1  0.63920000  0.81213000  0.15946000  1.0
  H  H20  1  0.81213000  0.17293000  0.84054000  1.0
  H  H21  1  0.18787000  0.82707000  0.15946000  1.0
  H  H22  1  0.82707000  0.63920000  0.84054000  1.0
  H  H23  1  0.17293000  0.36080000  0.15946000  1.0
  H  H24  1  0.02747000  0.52120000  0.17388000  1.0
  H  H25  1  0.30587000  0.14547000  0.49279000  1.0
  H  H26  1  0.47880000  0.50627000  0.17388000  1.0
  H  H27  1  0.85453000  0.16040000  0.49279000  1.0
  H  H28  1  0.49373000  0.97253000  0.17388000  1.0
  H  H29  1  0.83960000  0.69413000  0.49279000  1.0
  H  H30  1  0.69413000  0.85453000  0.50721000  1.0
  H  H31  1  0.97253000  0.47880000  0.82612000  1.0
  H  H32  1  0.14547000  0.83960000  0.50721000  1.0
  H  H33  1  0.52120000  0.49373000  0.82612000  1.0
  H  H34  1  0.16040000  0.30587000  0.50721000  1.0
  H  H35  1  0.50627000  0.02747000  0.82612000  1.0
  H  H36  1  0.47430000  0.15810000  0.44960000  1.0
  H  H37  1  0.52570000  0.84190000  0.55040000  1.0
  H  H38  1  0.84190000  0.31620000  0.44960000  1.0
  H  H39  1  0.15810000  0.68380000  0.55040000  1.0
  H  H40  1  0.68380000  0.52570000  0.44960000  1.0
  H  H41  1  0.31620000  0.47430000  0.55040000  1.0
  H  H42  1  0.14097000  0.49143000  0.78293000  1.0
  H  H43  1  0.19237000  0.17523000  0.88373000  1.0
  H  H44  1  0.50857000  0.64953000  0.78293000  1.0
  H  H45  1  0.82477000  0.01713000  0.88373000  1.0
  H  H46  1  0.35047000  0.85903000  0.78293000  1.0
  H  H47  1  0.98287000  0.80763000  0.88373000  1.0
  H  H48  1  0.80763000  0.82477000  0.11627000  1.0
  H  H49  1  0.85903000  0.50857000  0.21707000  1.0
  H  H50  1  0.17523000  0.98287000  0.11627000  1.0
  H  H51  1  0.49143000  0.35047000  0.21707000  1.0
  H  H52  1  0.01713000  0.19237000  0.11627000  1.0
  H  H53  1  0.64953000  0.14097000  0.21707000  1.0
  H  H54  1  0.45320000  0.12580000  0.24400000  1.0
  H  H55  1  0.54680000  0.87420000  0.75600000  1.0
  H  H56  1  0.87420000  0.32740000  0.24400000  1.0
  H  H57  1  0.12580000  0.67260000  0.75600000  1.0
  H  H58  1  0.67260000  0.54680000  0.24400000  1.0
  H  H59  1  0.32740000  0.45320000  0.75600000  1.0
  H  H60  1  0.11987000  0.45913000  0.57733000  1.0
  H  H61  1  0.21347000  0.20753000  0.08933000  1.0
  H  H62  1  0.54087000  0.66073000  0.57733000  1.0
  H  H63  1  0.79247000  0.00593000  0.08933000  1.0
  H  H64  1  0.33927000  0.88013000  0.57733000  1.0
  H  H65  1  0.99407000  0.78653000  0.08933000  1.0
  H  H66  1  0.78653000  0.79247000  0.91067000  1.0
  H  H67  1  0.88013000  0.54087000  0.42267000  1.0
  H  H68  1  0.20753000  0.99407000  0.91067000  1.0
  H  H69  1  0.45913000  0.33927000  0.42267000  1.0
  H  H70  1  0.00593000  0.21347000  0.91067000  1.0
  H  H71  1  0.66073000  0.11987000  0.42267000  1.0
  C  C72  1  0.34933000  0.08587000  0.91400000  1.0
  C  C73  1  0.65067000  0.91413000  0.08600000  1.0
  C  C74  1  0.91413000  0.26346000  0.91400000  1.0
  C  C75  1  0.08587000  0.73654000  0.08600000  1.0
  C  C76  1  0.73654000  0.65067000  0.91400000  1.0
  C  C77  1  0.26346000  0.34933000  0.08600000  1.0
  C  C78  1  0.01600000  0.41920000  0.24733000  1.0
  C  C79  1  0.31734000  0.24746000  0.41933000  1.0
  C  C80  1  0.58080000  0.59679000  0.24733000  1.0
  C  C81  1  0.75254000  0.06987000  0.41933000  1.0
  C  C82  1  0.40321000  0.98400000  0.24733000  1.0
  C  C83  1  0.93013000  0.68266000  0.41933000  1.0
  C  C84  1  0.68266000  0.75254000  0.58067000  1.0
  C  C85  1  0.98400000  0.58080000  0.75267000  1.0
  C  C86  1  0.24746000  0.93013000  0.58067000  1.0
  C  C87  1  0.41920000  0.40321000  0.75267000  1.0
  C  C88  1  0.06987000  0.31734000  0.58067000  1.0
  C  C89  1  0.59679000  0.01600000  0.75267000  1.0
  C  C90  1  0.34438000  0.22196000  0.08290000  1.0
  C  C91  1  0.65562000  0.77804000  0.91710000  1.0
  C  C92  1  0.77804000  0.12242000  0.08290000  1.0
  C  C93  1  0.22196000  0.87758000  0.91710000  1.0
  C  C94  1  0.87758000  0.65562000  0.08290000  1.0
  C  C95  1  0.12242000  0.34438000  0.91710000  1.0
  C  C96  1  0.01105000  0.55529000  0.41623000  1.0
  C  C97  1  0.32229000  0.11137000  0.25043000  1.0
  C  C98  1  0.44471000  0.45575000  0.41623000  1.0
  C  C99  1  0.88863000  0.21091000  0.25043000  1.0
  C  C100  1  0.54425000  0.98895000  0.41623000  1.0
  C  C101  1  0.78909000  0.67771000  0.25043000  1.0
  C  C102  1  0.67771000  0.88863000  0.74957000  1.0
  C  C103  1  0.98895000  0.44471000  0.58377000  1.0
  C  C104  1  0.11137000  0.78909000  0.74957000  1.0
  C  C105  1  0.55529000  0.54425000  0.58377000  1.0
  C  C106  1  0.21091000  0.32229000  0.74957000  1.0
  C  C107  1  0.45575000  0.01105000  0.58377000  1.0
  C  C108  1  0.33900000  0.12495000  0.04940000  1.0
  C  C109  1  0.66100000  0.87505000  0.95060000  1.0
  C  C110  1  0.87505000  0.21405000  0.04940000  1.0
  C  C111  1  0.12495000  0.78595000  0.95060000  1.0
  C  C112  1  0.78595000  0.66100000  0.04940000  1.0
  C  C113  1  0.21405000  0.33900000  0.95060000  1.0
  C  C114  1  0.00567000  0.45828000  0.38273000  1.0
  C  C115  1  0.32767000  0.20838000  0.28393000  1.0
  C  C116  1  0.54172000  0.54738000  0.38273000  1.0
  C  C117  1  0.79162000  0.11928000  0.28393000  1.0
  C  C118  1  0.45262000  0.99433000  0.38273000  1.0
  C  C119  1  0.88072000  0.67233000  0.28393000  1.0
  C  C120  1  0.67233000  0.79162000  0.71607000  1.0
  C  C121  1  0.99433000  0.54172000  0.61727000  1.0
  C  C122  1  0.20838000  0.88072000  0.71607000  1.0
  C  C123  1  0.45828000  0.45262000  0.61727000  1.0
  C  C124  1  0.11928000  0.32767000  0.71607000  1.0
  C  C125  1  0.54738000  0.00567000  0.61727000  1.0
  C  C126  1  0.34947000  0.17937000  0.97430000  1.0
  C  C127  1  0.65053000  0.82063000  0.02570000  1.0
  C  C128  1  0.82063000  0.17010000  0.97430000  1.0
  C  C129  1  0.17937000  0.82990000  0.02570000  1.0
  C  C130  1  0.82990000  0.65053000  0.97430000  1.0
  C  C131  1  0.17010000  0.34947000  0.02570000  1.0
  C  C132  1  0.01614000  0.51270000  0.30763000  1.0
  C  C133  1  0.31720000  0.15396000  0.35903000  1.0
  C  C134  1  0.48730000  0.50343000  0.30763000  1.0
  C  C135  1  0.84604000  0.16323000  0.35903000  1.0
  C  C136  1  0.49657000  0.98386000  0.30763000  1.0
  C  C137  1  0.83677000  0.68280000  0.35903000  1.0
  C  C138  1  0.68280000  0.84604000  0.64097000  1.0
  C  C139  1  0.98386000  0.48730000  0.69237000  1.0
  C  C140  1  0.15396000  0.83677000  0.64097000  1.0
  C  C141  1  0.51270000  0.49657000  0.69237000  1.0
  C  C142  1  0.16323000  0.31720000  0.64097000  1.0
  C  C143  1  0.50343000  0.01614000  0.69237000  1.0
  O  O144  1  0.34272000  0.03695000  0.97870000  1.0
  O  O145  1  0.65728000  0.96305000  0.02130000  1.0
  O  O146  1  0.96305000  0.30577000  0.97870000  1.0
  O  O147  1  0.03695000  0.69423000  0.02130000  1.0
  O  O148  1  0.69423000  0.65728000  0.97870000  1.0
  O  O149  1  0.30577000  0.34272000  0.02130000  1.0
  O  O150  1  0.00939000  0.37028000  0.31203000  1.0
  O  O151  1  0.32395000  0.29638000  0.35463000  1.0
  O  O152  1  0.62972000  0.63910000  0.31203000  1.0
  O  O153  1  0.70362000  0.02756000  0.35463000  1.0
  O  O154  1  0.36090000  0.99061000  0.31203000  1.0
  O  O155  1  0.97244000  0.67605000  0.35463000  1.0
  O  O156  1  0.67605000  0.70362000  0.64537000  1.0
  O  O157  1  0.99061000  0.62972000  0.68797000  1.0
  O  O158  1  0.29638000  0.97244000  0.64537000  1.0
  O  O159  1  0.37028000  0.36090000  0.68797000  1.0
  O  O160  1  0.02756000  0.32395000  0.64537000  1.0
  O  O161  1  0.63910000  0.00939000  0.68797000  1.0
  O  O162  1  0.35687000  0.27341000  0.99580000  1.0
  O  O163  1  0.64313000  0.72659000  0.00420000  1.0
  O  O164  1  0.72659000  0.08346000  0.99580000  1.0
  O  O165  1  0.27341000  0.91654000  0.00420000  1.0
  O  O166  1  0.91654000  0.64313000  0.99580000  1.0
  O  O167  1  0.08346000  0.35687000  0.00420000  1.0
  O  O168  1  0.02354000  0.60674000  0.32913000  1.0
  O  O169  1  0.30980000  0.05992000  0.33753000  1.0
  O  O170  1  0.39326000  0.41679000  0.32913000  1.0
  O  O171  1  0.94008000  0.24987000  0.33753000  1.0
  O  O172  1  0.58321000  0.97646000  0.32913000  1.0
  O  O173  1  0.75013000  0.69020000  0.33753000  1.0
  O  O174  1  0.69020000  0.94008000  0.66247000  1.0
  O  O175  1  0.97646000  0.39326000  0.67087000  1.0
  O  O176  1  0.05992000  0.75013000  0.66247000  1.0
  O  O177  1  0.60674000  0.58321000  0.67087000  1.0
  O  O178  1  0.24987000  0.30980000  0.66247000  1.0
  O  O179  1  0.41679000  0.02354000  0.67087000  1.0
  O  O180  1  0.36582000  0.10277000  0.74120000  1.0
  O  O181  1  0.63418000  0.89723000  0.25880000  1.0
  O  O182  1  0.89723000  0.26305000  0.74120000  1.0
  O  O183  1  0.10277000  0.73695000  0.25880000  1.0
  O  O184  1  0.73695000  0.63418000  0.74120000  1.0
  O  O185  1  0.26305000  0.36582000  0.25880000  1.0
  O  O186  1  0.03249000  0.43610000  0.07453000  1.0
  O  O187  1  0.30085000  0.23056000  0.59213000  1.0
  O  O188  1  0.56390000  0.59638000  0.07453000  1.0
  O  O189  1  0.76944000  0.07028000  0.59213000  1.0
  O  O190  1  0.40362000  0.96751000  0.07453000  1.0
  O  O191  1  0.92972000  0.69915000  0.59213000  1.0
  O  O192  1  0.69915000  0.76944000  0.40787000  1.0
  O  O193  1  0.96751000  0.56390000  0.92547000  1.0
  O  O194  1  0.23056000  0.92972000  0.40787000  1.0
  O  O195  1  0.43610000  0.40362000  0.92547000  1.0
  O  O196  1  0.07028000  0.30085000  0.40787000  1.0
  O  O197  1  0.59638000  0.03249000  0.92547000  1.0
  O  O198  1  0.44189000  0.12139000  0.38630000  1.0
  O  O199  1  0.55811000  0.87861000  0.61370000  1.0
  O  O200  1  0.87861000  0.32050000  0.38630000  1.0
  O  O201  1  0.12139000  0.67950000  0.61370000  1.0
  O  O202  1  0.67950000  0.55811000  0.38630000  1.0
  O  O203  1  0.32050000  0.44189000  0.61370000  1.0
  O  O204  1  0.10856000  0.45472000  0.71963000  1.0
  O  O205  1  0.22478000  0.21194000  0.94703000  1.0
  O  O206  1  0.54528000  0.65383000  0.71963000  1.0
  O  O207  1  0.78806000  0.01283000  0.94703000  1.0
  O  O208  1  0.34617000  0.89144000  0.71963000  1.0
  O  O209  1  0.98717000  0.77522000  0.94703000  1.0
  O  O210  1  0.77522000  0.78806000  0.05297000  1.0
  O  O211  1  0.89144000  0.54528000  0.28037000  1.0
  O  O212  1  0.21194000  0.98717000  0.05297000  1.0
  O  O213  1  0.45472000  0.34617000  0.28037000  1.0
  O  O214  1  0.01283000  0.22478000  0.05297000  1.0
  O  O215  1  0.65383000  0.10856000  0.28037000  1.0
