# generated using pymatgen
data_FeH6(C3N)6
_symmetry_space_group_name_H-M   'P 1'
_cell_length_a   13.01570000
_cell_length_b   13.01570000
_cell_length_c   62.61500000
_cell_angle_alpha   90.00000000
_cell_angle_beta   90.00000000
_cell_angle_gamma   120.00000000
_symmetry_Int_Tables_number   1
_chemical_formula_structural   FeH6(C3N)6
_chemical_formula_sum   'Fe12 H72 C216 N72'
_cell_volume   9186.37302435
_cell_formula_units_Z   12
loop_
 _symmetry_equiv_pos_site_id
 _symmetry_equiv_pos_as_xyz
  1  'x, y, z'
loop_
 _atom_site_type_symbol
 _atom_site_label
 _atom_site_symmetry_multiplicity
 _atom_site_fract_x
 _atom_site_fract_y
 _atom_site_fract_z
 _atom_site_occupancy
  Fe  Fe0  1  0.33333333  0.66666667  0.00354000  1
  Fe  Fe1  1  0.00000000  0.00000000  0.33688000  1
  Fe  Fe2  1  0.66666667  0.33333333  0.67021000  1
  Fe  Fe3  1  0.66666667  0.33333333  0.49646000  1
  Fe  Fe4  1  0.33333333  0.66666667  0.82979000  1
  Fe  Fe5  1  0.00000000  0.00000000  0.16312000  1
  Fe  Fe6  1  0.66666667  0.33333333  0.99646000  1
  Fe  Fe7  1  0.33333333  0.66666667  0.32979000  1
  Fe  Fe8  1  0.00000000  0.00000000  0.66312000  1
  Fe  Fe9  1  0.33333333  0.66666667  0.50354000  1
  Fe  Fe10  1  0.00000000  0.00000000  0.83688000  1
  Fe  Fe11  1  0.66666667  0.33333333  0.17021000  1
  H  H12  1  0.76830000  0.63960000  0.93450000  1
  H  H13  1  0.45680000  0.63920000  0.93460000  1
  H  H14  1  0.43497000  0.97293000  0.26783000  1
  H  H15  1  0.12347000  0.97253000  0.26793000  1
  H  H16  1  0.10163000  0.30627000  0.60117000  1
  H  H17  1  0.79013000  0.30587000  0.60127000  1
  H  H18  1  0.36040000  0.12870000  0.93450000  1
  H  H19  1  0.36080000  0.81760000  0.93460000  1
  H  H20  1  0.02707000  0.46203000  0.26783000  1
  H  H21  1  0.02747000  0.15093000  0.26793000  1
  H  H22  1  0.69373000  0.79537000  0.60117000  1
  H  H23  1  0.69413000  0.48427000  0.60127000  1
  H  H24  1  0.87130000  0.23170000  0.93450000  1
  H  H25  1  0.18240000  0.54320000  0.93460000  1
  H  H26  1  0.53797000  0.56503000  0.26783000  1
  H  H27  1  0.84907000  0.87653000  0.26793000  1
  H  H28  1  0.20463000  0.89837000  0.60117000  1
  H  H29  1  0.51573000  0.20987000  0.60127000  1
  H  H30  1  0.63960000  0.76830000  0.56550000  1
  H  H31  1  0.63920000  0.45680000  0.56540000  1
  H  H32  1  0.30627000  0.10163000  0.89883000  1
  H  H33  1  0.30587000  0.79013000  0.89873000  1
  H  H34  1  0.97293000  0.43497000  0.23217000  1
  H  H35  1  0.97253000  0.12347000  0.23207000  1
  H  H36  1  0.12870000  0.36040000  0.56550000  1
  H  H37  1  0.81760000  0.36080000  0.56540000  1
  H  H38  1  0.79537000  0.69373000  0.89883000  1
  H  H39  1  0.48427000  0.69413000  0.89873000  1
  H  H40  1  0.46203000  0.02707000  0.23217000  1
  H  H41  1  0.15093000  0.02747000  0.23207000  1
  H  H42  1  0.23170000  0.87130000  0.56550000  1
  H  H43  1  0.54320000  0.18240000  0.56540000  1
  H  H44  1  0.89837000  0.20463000  0.89883000  1
  H  H45  1  0.20987000  0.51573000  0.89873000  1
  H  H46  1  0.56503000  0.53797000  0.23217000  1
  H  H47  1  0.87653000  0.84907000  0.23207000  1
  H  H48  1  0.23170000  0.36040000  0.06550000  1
  H  H49  1  0.54320000  0.36080000  0.06540000  1
  H  H50  1  0.89837000  0.69373000  0.39883000  1
  H  H51  1  0.20987000  0.69413000  0.39873000  1
  H  H52  1  0.56503000  0.02707000  0.73217000  1
  H  H53  1  0.87653000  0.02747000  0.73207000  1
  H  H54  1  0.63960000  0.87130000  0.06550000  1
  H  H55  1  0.63920000  0.18240000  0.06540000  1
  H  H56  1  0.30627000  0.20463000  0.39883000  1
  H  H57  1  0.30587000  0.51573000  0.39873000  1
  H  H58  1  0.97293000  0.53797000  0.73217000  1
  H  H59  1  0.97253000  0.84907000  0.73207000  1
  H  H60  1  0.12870000  0.76830000  0.06550000  1
  H  H61  1  0.81760000  0.45680000  0.06540000  1
  H  H62  1  0.79537000  0.10163000  0.39883000  1
  H  H63  1  0.48427000  0.79013000  0.39873000  1
  H  H64  1  0.46203000  0.43497000  0.73217000  1
  H  H65  1  0.15093000  0.12347000  0.73207000  1
  H  H66  1  0.36040000  0.23170000  0.43450000  1
  H  H67  1  0.36080000  0.54320000  0.43460000  1
  H  H68  1  0.02707000  0.56503000  0.76783000  1
  H  H69  1  0.02747000  0.87653000  0.76793000  1
  H  H70  1  0.69373000  0.89837000  0.10117000  1
  H  H71  1  0.69413000  0.20987000  0.10127000  1
  H  H72  1  0.87130000  0.63960000  0.43450000  1
  H  H73  1  0.18240000  0.63920000  0.43460000  1
  H  H74  1  0.53797000  0.97293000  0.76783000  1
  H  H75  1  0.84907000  0.97253000  0.76793000  1
  H  H76  1  0.20463000  0.30627000  0.10117000  1
  H  H77  1  0.51573000  0.30587000  0.10127000  1
  H  H78  1  0.76830000  0.12870000  0.43450000  1
  H  H79  1  0.45680000  0.81760000  0.43460000  1
  H  H80  1  0.43497000  0.46203000  0.76783000  1
  H  H81  1  0.12347000  0.15093000  0.76793000  1
  H  H82  1  0.10163000  0.79537000  0.10117000  1
  H  H83  1  0.79013000  0.48427000  0.10127000  1
  C  C84  1  0.59225000  0.60124000  0.96128000  1
  C  C85  1  0.71019000  0.65047000  0.92735000  1
  C  C86  1  0.60974000  0.63348000  0.93851000  1
  C  C87  1  0.52012000  0.62732000  0.97393000  1
  C  C88  1  0.52591000  0.65029000  0.92738000  1
  C  C89  1  0.63491000  0.53148000  0.97027000  1
  C  C90  1  0.25892000  0.93457000  0.29461000  1
  C  C91  1  0.37686000  0.98380000  0.26068000  1
  C  C92  1  0.27641000  0.96681000  0.27184000  1
  C  C93  1  0.18679000  0.96065000  0.30726000  1
  C  C94  1  0.19258000  0.98362000  0.26071000  1
  C  C95  1  0.30158000  0.86481000  0.30360000  1
  C  C96  1  0.92558000  0.26791000  0.62795000  1
  C  C97  1  0.04352000  0.31714000  0.59402000  1
  C  C98  1  0.94307000  0.30015000  0.60518000  1
  C  C99  1  0.85345000  0.29399000  0.64060000  1
  C  C100  1  0.85924000  0.31696000  0.59405000  1
  C  C101  1  0.96824000  0.19815000  0.63694000  1
  C  C102  1  0.39876000  0.99101000  0.96128000  1
  C  C103  1  0.34953000  0.05972000  0.92735000  1
  C  C104  1  0.36652000  0.97626000  0.93851000  1
  C  C105  1  0.37268000  0.89280000  0.97393000  1
  C  C106  1  0.34971000  0.87562000  0.92738000  1
  C  C107  1  0.46852000  0.10343000  0.97027000  1
  C  C108  1  0.06543000  0.32434000  0.29461000  1
  C  C109  1  0.01620000  0.39305000  0.26068000  1
  C  C110  1  0.03319000  0.30959000  0.27184000  1
  C  C111  1  0.03935000  0.22613000  0.30726000  1
  C  C112  1  0.01638000  0.20895000  0.26071000  1
  C  C113  1  0.13519000  0.43676000  0.30360000  1
  C  C114  1  0.73209000  0.65768000  0.62795000  1
  C  C115  1  0.68286000  0.72639000  0.59402000  1
  C  C116  1  0.69985000  0.64293000  0.60518000  1
  C  C117  1  0.70601000  0.55947000  0.64060000  1
  C  C118  1  0.68304000  0.54229000  0.59405000  1
  C  C119  1  0.80185000  0.77010000  0.63694000  1
  C  C120  1  0.00899000  0.40775000  0.96128000  1
  C  C121  1  0.94028000  0.28981000  0.92735000  1
  C  C122  1  0.02374000  0.39026000  0.93851000  1
  C  C123  1  0.10720000  0.47988000  0.97393000  1
  C  C124  1  0.12438000  0.47409000  0.92738000  1
  C  C125  1  0.89657000  0.36509000  0.97027000  1
  C  C126  1  0.67566000  0.74108000  0.29461000  1
  C  C127  1  0.60695000  0.62314000  0.26068000  1
  C  C128  1  0.69041000  0.72359000  0.27184000  1
  C  C129  1  0.77387000  0.81321000  0.30726000  1
  C  C130  1  0.79105000  0.80742000  0.26071000  1
  C  C131  1  0.56324000  0.69842000  0.30360000  1
  C  C132  1  0.34232000  0.07442000  0.62795000  1
  C  C133  1  0.27361000  0.95648000  0.59402000  1
  C  C134  1  0.35707000  0.05693000  0.60518000  1
  C  C135  1  0.44053000  0.14655000  0.64060000  1
  C  C136  1  0.45771000  0.14076000  0.59405000  1
  C  C137  1  0.22990000  0.03176000  0.63694000  1
  C  C138  1  0.60124000  0.59225000  0.53872000  1
  C  C139  1  0.65047000  0.71019000  0.57265000  1
  C  C140  1  0.63348000  0.60974000  0.56149000  1
  C  C141  1  0.62732000  0.52012000  0.52607000  1
  C  C142  1  0.65029000  0.52591000  0.57262000  1
  C  C143  1  0.53148000  0.63491000  0.52973000  1
  C  C144  1  0.26791000  0.92558000  0.87205000  1
  C  C145  1  0.31714000  0.04352000  0.90598000  1
  C  C146  1  0.30015000  0.94307000  0.89482000  1
  C  C147  1  0.29399000  0.85345000  0.85940000  1
  C  C148  1  0.31696000  0.85924000  0.90595000  1
  C  C149  1  0.19815000  0.96824000  0.86306000  1
  C  C150  1  0.93457000  0.25892000  0.20539000  1
  C  C151  1  0.98380000  0.37686000  0.23932000  1
  C  C152  1  0.96681000  0.27641000  0.22816000  1
  C  C153  1  0.96065000  0.18679000  0.19274000  1
  C  C154  1  0.98362000  0.19258000  0.23929000  1
  C  C155  1  0.86481000  0.30158000  0.19640000  1
  C  C156  1  0.99101000  0.39876000  0.53872000  1
  C  C157  1  0.05972000  0.34953000  0.57265000  1
  C  C158  1  0.97626000  0.36652000  0.56149000  1
  C  C159  1  0.89280000  0.37268000  0.52607000  1
  C  C160  1  0.87562000  0.34971000  0.57262000  1
  C  C161  1  0.10343000  0.46852000  0.52973000  1
  C  C162  1  0.65768000  0.73209000  0.87205000  1
  C  C163  1  0.72639000  0.68286000  0.90598000  1
  C  C164  1  0.64293000  0.69985000  0.89482000  1
  C  C165  1  0.55947000  0.70601000  0.85940000  1
  C  C166  1  0.54229000  0.68304000  0.90595000  1
  C  C167  1  0.77010000  0.80185000  0.86306000  1
  C  C168  1  0.32434000  0.06543000  0.20539000  1
  C  C169  1  0.39305000  0.01620000  0.23932000  1
  C  C170  1  0.30959000  0.03319000  0.22816000  1
  C  C171  1  0.22613000  0.03935000  0.19274000  1
  C  C172  1  0.20895000  0.01638000  0.23929000  1
  C  C173  1  0.43676000  0.13519000  0.19640000  1
  C  C174  1  0.40775000  0.00899000  0.53872000  1
  C  C175  1  0.28981000  0.94028000  0.57265000  1
  C  C176  1  0.39026000  0.02374000  0.56149000  1
  C  C177  1  0.47988000  0.10720000  0.52607000  1
  C  C178  1  0.47409000  0.12438000  0.57262000  1
  C  C179  1  0.36509000  0.89657000  0.52973000  1
  C  C180  1  0.07442000  0.34232000  0.87205000  1
  C  C181  1  0.95648000  0.27361000  0.90598000  1
  C  C182  1  0.05693000  0.35707000  0.89482000  1
  C  C183  1  0.14655000  0.44053000  0.85940000  1
  C  C184  1  0.14076000  0.45771000  0.90595000  1
  C  C185  1  0.03176000  0.22990000  0.86306000  1
  C  C186  1  0.74108000  0.67566000  0.20539000  1
  C  C187  1  0.62314000  0.60695000  0.23932000  1
  C  C188  1  0.72359000  0.69041000  0.22816000  1
  C  C189  1  0.81321000  0.77387000  0.19274000  1
  C  C190  1  0.80742000  0.79105000  0.23929000  1
  C  C191  1  0.69842000  0.56324000  0.19640000  1
  C  C192  1  0.40775000  0.39876000  0.03872000  1
  C  C193  1  0.28981000  0.34953000  0.07265000  1
  C  C194  1  0.39026000  0.36652000  0.06149000  1
  C  C195  1  0.47988000  0.37268000  0.02607000  1
  C  C196  1  0.47409000  0.34971000  0.07262000  1
  C  C197  1  0.36509000  0.46852000  0.02973000  1
  C  C198  1  0.07442000  0.73209000  0.37205000  1
  C  C199  1  0.95648000  0.68286000  0.40598000  1
  C  C200  1  0.05693000  0.69985000  0.39482000  1
  C  C201  1  0.14655000  0.70601000  0.35940000  1
  C  C202  1  0.14076000  0.68304000  0.40595000  1
  C  C203  1  0.03176000  0.80185000  0.36306000  1
  C  C204  1  0.74108000  0.06543000  0.70539000  1
  C  C205  1  0.62314000  0.01620000  0.73932000  1
  C  C206  1  0.72359000  0.03319000  0.72816000  1
  C  C207  1  0.81321000  0.03935000  0.69274000  1
  C  C208  1  0.80742000  0.01638000  0.73929000  1
  C  C209  1  0.69842000  0.13519000  0.69640000  1
  C  C210  1  0.60124000  0.00899000  0.03872000  1
  C  C211  1  0.65047000  0.94028000  0.07265000  1
  C  C212  1  0.63348000  0.02374000  0.06149000  1
  C  C213  1  0.62732000  0.10720000  0.02607000  1
  C  C214  1  0.65029000  0.12438000  0.07262000  1
  C  C215  1  0.53148000  0.89657000  0.02973000  1
  C  C216  1  0.26791000  0.34232000  0.37205000  1
  C  C217  1  0.31714000  0.27361000  0.40598000  1
  C  C218  1  0.30015000  0.35707000  0.39482000  1
  C  C219  1  0.29399000  0.44053000  0.35940000  1
  C  C220  1  0.31696000  0.45771000  0.40595000  1
  C  C221  1  0.19815000  0.22990000  0.36306000  1
  C  C222  1  0.93457000  0.67566000  0.70539000  1
  C  C223  1  0.98380000  0.60695000  0.73932000  1
  C  C224  1  0.96681000  0.69041000  0.72816000  1
  C  C225  1  0.96065000  0.77387000  0.69274000  1
  C  C226  1  0.98362000  0.79105000  0.73929000  1
  C  C227  1  0.86481000  0.56324000  0.69640000  1
  C  C228  1  0.99101000  0.59225000  0.03872000  1
  C  C229  1  0.05972000  0.71019000  0.07265000  1
  C  C230  1  0.97626000  0.60974000  0.06149000  1
  C  C231  1  0.89280000  0.52012000  0.02607000  1
  C  C232  1  0.87562000  0.52591000  0.07262000  1
  C  C233  1  0.10343000  0.63491000  0.02973000  1
  C  C234  1  0.65768000  0.92558000  0.37205000  1
  C  C235  1  0.72639000  0.04352000  0.40598000  1
  C  C236  1  0.64293000  0.94307000  0.39482000  1
  C  C237  1  0.55947000  0.85345000  0.35940000  1
  C  C238  1  0.54229000  0.85924000  0.40595000  1
  C  C239  1  0.77010000  0.96824000  0.36306000  1
  C  C240  1  0.32434000  0.25892000  0.70539000  1
  C  C241  1  0.39305000  0.37686000  0.73932000  1
  C  C242  1  0.30959000  0.27641000  0.72816000  1
  C  C243  1  0.22613000  0.18679000  0.69274000  1
  C  C244  1  0.20895000  0.19258000  0.73929000  1
  C  C245  1  0.43676000  0.30158000  0.69640000  1
  C  C246  1  0.39876000  0.40775000  0.46128000  1
  C  C247  1  0.34953000  0.28981000  0.42735000  1
  C  C248  1  0.36652000  0.39026000  0.43851000  1
  C  C249  1  0.37268000  0.47988000  0.47393000  1
  C  C250  1  0.34971000  0.47409000  0.42738000  1
  C  C251  1  0.46852000  0.36509000  0.47027000  1
  C  C252  1  0.06543000  0.74108000  0.79461000  1
  C  C253  1  0.01620000  0.62314000  0.76068000  1
  C  C254  1  0.03319000  0.72359000  0.77184000  1
  C  C255  1  0.03935000  0.81321000  0.80726000  1
  C  C256  1  0.01638000  0.80742000  0.76071000  1
  C  C257  1  0.13519000  0.69842000  0.80360000  1
  C  C258  1  0.73209000  0.07442000  0.12795000  1
  C  C259  1  0.68286000  0.95648000  0.09402000  1
  C  C260  1  0.69985000  0.05693000  0.10518000  1
  C  C261  1  0.70601000  0.14655000  0.14060000  1
  C  C262  1  0.68304000  0.14076000  0.09405000  1
  C  C263  1  0.80185000  0.03176000  0.13694000  1
  C  C264  1  0.00899000  0.60124000  0.46128000  1
  C  C265  1  0.94028000  0.65047000  0.42735000  1
  C  C266  1  0.02374000  0.63348000  0.43851000  1
  C  C267  1  0.10720000  0.62732000  0.47393000  1
  C  C268  1  0.12438000  0.65029000  0.42738000  1
  C  C269  1  0.89657000  0.53148000  0.47027000  1
  C  C270  1  0.67566000  0.93457000  0.79461000  1
  C  C271  1  0.60695000  0.98380000  0.76068000  1
  C  C272  1  0.69041000  0.96681000  0.77184000  1
  C  C273  1  0.77387000  0.96065000  0.80726000  1
  C  C274  1  0.79105000  0.98362000  0.76071000  1
  C  C275  1  0.56324000  0.86481000  0.80360000  1
  C  C276  1  0.34232000  0.26791000  0.12795000  1
  C  C277  1  0.27361000  0.31714000  0.09402000  1
  C  C278  1  0.35707000  0.30015000  0.10518000  1
  C  C279  1  0.44053000  0.29399000  0.14060000  1
  C  C280  1  0.45771000  0.31696000  0.09405000  1
  C  C281  1  0.22990000  0.19815000  0.13694000  1
  C  C282  1  0.59225000  0.99101000  0.46128000  1
  C  C283  1  0.71019000  0.05972000  0.42735000  1
  C  C284  1  0.60974000  0.97626000  0.43851000  1
  C  C285  1  0.52012000  0.89280000  0.47393000  1
  C  C286  1  0.52591000  0.87562000  0.42738000  1
  C  C287  1  0.63491000  0.10343000  0.47027000  1
  C  C288  1  0.25892000  0.32434000  0.79461000  1
  C  C289  1  0.37686000  0.39305000  0.76068000  1
  C  C290  1  0.27641000  0.30959000  0.77184000  1
  C  C291  1  0.18679000  0.22613000  0.80726000  1
  C  C292  1  0.19258000  0.20895000  0.76071000  1
  C  C293  1  0.30158000  0.43676000  0.80360000  1
  C  C294  1  0.92558000  0.65768000  0.12795000  1
  C  C295  1  0.04352000  0.72639000  0.09402000  1
  C  C296  1  0.94307000  0.64293000  0.10518000  1
  C  C297  1  0.85345000  0.55947000  0.14060000  1
  C  C298  1  0.85924000  0.54229000  0.09405000  1
  C  C299  1  0.96824000  0.77010000  0.13694000  1
  N  N300  1  0.45971000  0.65006000  0.98407000  1
  N  N301  1  0.66717000  0.47127000  0.97780000  1
  N  N302  1  0.12638000  0.98339000  0.31740000  1
  N  N303  1  0.33384000  0.80460000  0.31113000  1
  N  N304  1  0.79304000  0.31673000  0.65074000  1
  N  N305  1  0.00050000  0.13794000  0.64447000  1
  N  N306  1  0.34994000  0.80965000  0.98407000  1
  N  N307  1  0.52873000  0.19590000  0.97780000  1
  N  N308  1  0.01661000  0.14298000  0.31740000  1
  N  N309  1  0.19540000  0.52923000  0.31113000  1
  N  N310  1  0.68327000  0.47632000  0.65074000  1
  N  N311  1  0.86206000  0.86257000  0.64447000  1
  N  N312  1  0.19035000  0.54029000  0.98407000  1
  N  N313  1  0.80410000  0.33283000  0.97780000  1
  N  N314  1  0.85702000  0.87362000  0.31740000  1
  N  N315  1  0.47077000  0.66616000  0.31113000  1
  N  N316  1  0.52368000  0.20696000  0.65074000  1
  N  N317  1  0.13743000  0.99950000  0.64447000  1
  N  N318  1  0.65006000  0.45971000  0.51593000  1
  N  N319  1  0.47127000  0.66717000  0.52220000  1
  N  N320  1  0.31673000  0.79304000  0.84926000  1
  N  N321  1  0.13794000  0.00050000  0.85553000  1
  N  N322  1  0.98339000  0.12638000  0.18260000  1
  N  N323  1  0.80460000  0.33384000  0.18887000  1
  N  N324  1  0.80965000  0.34994000  0.51593000  1
  N  N325  1  0.19590000  0.52873000  0.52220000  1
  N  N326  1  0.47632000  0.68327000  0.84926000  1
  N  N327  1  0.86257000  0.86206000  0.85553000  1
  N  N328  1  0.14298000  0.01661000  0.18260000  1
  N  N329  1  0.52923000  0.19540000  0.18887000  1
  N  N330  1  0.54029000  0.19035000  0.51593000  1
  N  N331  1  0.33283000  0.80410000  0.52220000  1
  N  N332  1  0.20696000  0.52368000  0.84926000  1
  N  N333  1  0.99950000  0.13743000  0.85553000  1
  N  N334  1  0.87362000  0.85702000  0.18260000  1
  N  N335  1  0.66616000  0.47077000  0.18887000  1
  N  N336  1  0.54029000  0.34994000  0.01593000  1
  N  N337  1  0.33283000  0.52873000  0.02220000  1
  N  N338  1  0.20696000  0.68327000  0.34926000  1
  N  N339  1  0.99950000  0.86206000  0.35553000  1
  N  N340  1  0.87362000  0.01661000  0.68260000  1
  N  N341  1  0.66616000  0.19540000  0.68887000  1
  N  N342  1  0.65006000  0.19035000  0.01593000  1
  N  N343  1  0.47127000  0.80410000  0.02220000  1
  N  N344  1  0.31673000  0.52368000  0.34926000  1
  N  N345  1  0.13794000  0.13743000  0.35553000  1
  N  N346  1  0.98339000  0.85702000  0.68260000  1
  N  N347  1  0.80460000  0.47077000  0.68887000  1
  N  N348  1  0.80965000  0.45971000  0.01593000  1
  N  N349  1  0.19590000  0.66717000  0.02220000  1
  N  N350  1  0.47632000  0.79304000  0.34926000  1
  N  N351  1  0.86257000  0.00050000  0.35553000  1
  N  N352  1  0.14298000  0.12638000  0.68260000  1
  N  N353  1  0.52923000  0.33384000  0.68887000  1
  N  N354  1  0.34994000  0.54029000  0.48407000  1
  N  N355  1  0.52873000  0.33283000  0.47780000  1
  N  N356  1  0.01661000  0.87362000  0.81740000  1
  N  N357  1  0.19540000  0.66616000  0.81113000  1
  N  N358  1  0.68327000  0.20696000  0.15074000  1
  N  N359  1  0.86206000  0.99950000  0.14447000  1
  N  N360  1  0.19035000  0.65006000  0.48407000  1
  N  N361  1  0.80410000  0.47127000  0.47780000  1
  N  N362  1  0.85702000  0.98339000  0.81740000  1
  N  N363  1  0.47077000  0.80460000  0.81113000  1
  N  N364  1  0.52368000  0.31673000  0.15074000  1
  N  N365  1  0.13743000  0.13794000  0.14447000  1
  N  N366  1  0.45971000  0.80965000  0.48407000  1
  N  N367  1  0.66717000  0.19590000  0.47780000  1
  N  N368  1  0.12638000  0.14298000  0.81740000  1
  N  N369  1  0.33384000  0.52923000  0.81113000  1
  N  N370  1  0.79304000  0.47632000  0.15074000  1
  N  N371  1  0.00050000  0.86257000  0.14447000  1
