# generated using pymatgen
data_Er6Cu3H20C30(N4O9)3
_symmetry_space_group_name_H-M   'P 1'
_cell_length_a   27.29400000
_cell_length_b   27.29400000
_cell_length_c   6.95650000
_cell_angle_alpha   90.00000000
_cell_angle_beta   90.00000000
_cell_angle_gamma   120.00000000
_symmetry_Int_Tables_number   1
_chemical_formula_structural   Er6Cu3H20C30(N4O9)3
_chemical_formula_sum   'Er18 Cu9 H60 C90 N36 O81'
_cell_volume   4488.03045793
_cell_formula_units_Z   3
loop_
 _symmetry_equiv_pos_site_id
 _symmetry_equiv_pos_as_xyz
  1  'x, y, z'
loop_
 _atom_site_type_symbol
 _atom_site_label
 _atom_site_symmetry_multiplicity
 _atom_site_fract_x
 _atom_site_fract_y
 _atom_site_fract_z
 _atom_site_occupancy
  Er  Er0  1  0.74726000  0.34170000  0.11645000  1
  Er  Er1  1  0.41393000  0.67504000  0.44978000  1
  Er  Er2  1  0.08060000  0.00837000  0.78312000  1
  Er  Er3  1  0.65830000  0.40556000  0.11645000  1
  Er  Er4  1  0.32496000  0.73889000  0.44978000  1
  Er  Er5  1  0.99163000  0.07223000  0.78312000  1
  Er  Er6  1  0.59444000  0.25274000  0.11645000  1
  Er  Er7  1  0.26111000  0.58607000  0.44978000  1
  Er  Er8  1  0.92777000  0.91940000  0.78312000  1
  Er  Er9  1  0.25274000  0.65830000  0.88355000  1
  Er  Er10  1  0.91940000  0.99163000  0.21688000  1
  Er  Er11  1  0.58607000  0.32496000  0.55022000  1
  Er  Er12  1  0.34170000  0.59444000  0.88355000  1
  Er  Er13  1  0.00837000  0.92777000  0.21688000  1
  Er  Er14  1  0.67504000  0.26111000  0.55022000  1
  Er  Er15  1  0.40556000  0.74726000  0.88355000  1
  Er  Er16  1  0.07223000  0.08060000  0.21688000  1
  Er  Er17  1  0.73889000  0.41393000  0.55022000  1
  Cu  Cu18  1  0.00000000  0.50000000  0.00000000  1
  Cu  Cu19  1  0.66666667  0.83333000  0.33333333  1
  Cu  Cu20  1  0.33333333  0.16667000  0.66666667  1
  Cu  Cu21  1  0.50000000  0.50000000  0.00000000  1
  Cu  Cu22  1  0.16667000  0.83333000  0.33333333  1
  Cu  Cu23  1  0.83333000  0.16667000  0.66666667  1
  Cu  Cu24  1  0.50000000  0.00000000  0.00000000  1
  Cu  Cu25  1  0.16667000  0.33333333  0.33333333  1
  Cu  Cu26  1  0.83333000  0.66666667  0.66666667  1
  H  H27  1  0.78830000  0.34580000  0.47930000  1
  H  H28  1  0.97710000  0.53480000  0.59830000  1
  H  H29  1  0.89630000  0.51070000  0.42660000  1
  H  H30  1  0.45497000  0.67913000  0.81263000  1
  H  H31  1  0.64377000  0.86813000  0.93163000  1
  H  H32  1  0.56297000  0.84403000  0.75993000  1
  H  H33  1  0.12163000  0.01247000  0.14597000  1
  H  H34  1  0.31043000  0.20147000  0.26497000  1
  H  H35  1  0.22963000  0.17737000  0.09327000  1
  H  H36  1  0.65420000  0.44250000  0.47930000  1
  H  H37  1  0.46520000  0.44230000  0.59830000  1
  H  H38  1  0.48930000  0.38560000  0.42660000  1
  H  H39  1  0.32087000  0.77583000  0.81263000  1
  H  H40  1  0.13187000  0.77563000  0.93163000  1
  H  H41  1  0.15597000  0.71893000  0.75993000  1
  H  H42  1  0.98753000  0.10917000  0.14597000  1
  H  H43  1  0.79853000  0.10897000  0.26497000  1
  H  H44  1  0.82263000  0.05227000  0.09327000  1
  H  H45  1  0.55750000  0.21170000  0.47930000  1
  H  H46  1  0.55770000  0.02290000  0.59830000  1
  H  H47  1  0.61440000  0.10370000  0.42660000  1
  H  H48  1  0.22417000  0.54503000  0.81263000  1
  H  H49  1  0.22437000  0.35623000  0.93163000  1
  H  H50  1  0.28107000  0.43703000  0.75993000  1
  H  H51  1  0.89083000  0.87837000  0.14597000  1
  H  H52  1  0.89103000  0.68957000  0.26497000  1
  H  H53  1  0.94773000  0.77037000  0.09327000  1
  H  H54  1  0.21170000  0.65420000  0.52070000  1
  H  H55  1  0.02290000  0.46520000  0.40170000  1
  H  H56  1  0.10370000  0.48930000  0.57340000  1
  H  H57  1  0.87837000  0.98753000  0.85403000  1
  H  H58  1  0.68957000  0.79853000  0.73503000  1
  H  H59  1  0.77037000  0.82263000  0.90673000  1
  H  H60  1  0.54503000  0.32087000  0.18737000  1
  H  H61  1  0.35623000  0.13187000  0.06837000  1
  H  H62  1  0.43703000  0.15597000  0.24007000  1
  H  H63  1  0.34580000  0.55750000  0.52070000  1
  H  H64  1  0.53480000  0.55770000  0.40170000  1
  H  H65  1  0.51070000  0.61440000  0.57340000  1
  H  H66  1  0.01247000  0.89083000  0.85403000  1
  H  H67  1  0.20147000  0.89103000  0.73503000  1
  H  H68  1  0.17737000  0.94773000  0.90673000  1
  H  H69  1  0.67913000  0.22417000  0.18737000  1
  H  H70  1  0.86813000  0.22437000  0.06837000  1
  H  H71  1  0.84403000  0.28107000  0.24007000  1
  H  H72  1  0.44250000  0.78830000  0.52070000  1
  H  H73  1  0.44230000  0.97710000  0.40170000  1
  H  H74  1  0.38560000  0.89630000  0.57340000  1
  H  H75  1  0.10917000  0.12163000  0.85403000  1
  H  H76  1  0.10897000  0.31043000  0.73503000  1
  H  H77  1  0.05227000  0.22963000  0.90673000  1
  H  H78  1  0.77583000  0.45497000  0.18737000  1
  H  H79  1  0.77563000  0.64377000  0.06837000  1
  H  H80  1  0.71893000  0.56297000  0.24007000  1
  H  H81  1  0.66666667  0.33333333  0.89370000  1
  H  H82  1  0.33333333  0.66666667  0.22703000  1
  H  H83  1  0.00000000  0.00000000  0.56037000  1
  H  H84  1  0.33333333  0.66666667  0.10630000  1
  H  H85  1  0.00000000  0.00000000  0.43963000  1
  H  H86  1  0.66666667  0.33333333  0.77297000  1
  C  C87  1  0.83780000  0.43420000  0.78970000  1
  C  C88  1  0.88800000  0.45070000  0.89690000  1
  C  C89  1  0.94200000  0.50950000  0.65000000  1
  C  C90  1  0.89340000  0.49470000  0.54700000  1
  C  C91  1  0.88960000  0.43050000  0.09540000  1
  C  C92  1  0.50447000  0.76753000  0.12303000  1
  C  C93  1  0.55467000  0.78403000  0.23023000  1
  C  C94  1  0.60867000  0.84283000  0.98333000  1
  C  C95  1  0.56007000  0.82803000  0.88033000  1
  C  C96  1  0.55627000  0.76383000  0.42873000  1
  C  C97  1  0.17113000  0.10087000  0.45637000  1
  C  C98  1  0.22133000  0.11737000  0.56357000  1
  C  C99  1  0.27533000  0.17617000  0.31667000  1
  C  C100  1  0.22673000  0.16137000  0.21367000  1
  C  C101  1  0.22293000  0.09717000  0.76207000  1
  C  C102  1  0.56580000  0.40360000  0.78970000  1
  C  C103  1  0.54930000  0.43730000  0.89690000  1
  C  C104  1  0.49050000  0.43250000  0.65000000  1
  C  C105  1  0.50530000  0.39870000  0.54700000  1
  C  C106  1  0.56950000  0.45910000  0.09540000  1
  C  C107  1  0.23247000  0.73693000  0.12303000  1
  C  C108  1  0.21597000  0.77063000  0.23023000  1
  C  C109  1  0.15717000  0.76583000  0.98333000  1
  C  C110  1  0.17197000  0.73203000  0.88033000  1
  C  C111  1  0.23617000  0.79243000  0.42873000  1
  C  C112  1  0.89913000  0.07027000  0.45637000  1
  C  C113  1  0.88263000  0.10397000  0.56357000  1
  C  C114  1  0.82383000  0.09917000  0.31667000  1
  C  C115  1  0.83863000  0.06537000  0.21367000  1
  C  C116  1  0.90283000  0.12577000  0.76207000  1
  C  C117  1  0.59640000  0.16220000  0.78970000  1
  C  C118  1  0.56270000  0.11200000  0.89690000  1
  C  C119  1  0.56750000  0.05800000  0.65000000  1
  C  C120  1  0.60130000  0.10660000  0.54700000  1
  C  C121  1  0.54090000  0.11040000  0.09540000  1
  C  C122  1  0.26307000  0.49553000  0.12303000  1
  C  C123  1  0.22937000  0.44533000  0.23023000  1
  C  C124  1  0.23417000  0.39133000  0.98333000  1
  C  C125  1  0.26797000  0.43993000  0.88033000  1
  C  C126  1  0.20757000  0.44373000  0.42873000  1
  C  C127  1  0.92973000  0.82887000  0.45637000  1
  C  C128  1  0.89603000  0.77867000  0.56357000  1
  C  C129  1  0.90083000  0.72467000  0.31667000  1
  C  C130  1  0.93463000  0.77327000  0.21367000  1
  C  C131  1  0.87423000  0.77707000  0.76207000  1
  C  C132  1  0.16220000  0.56580000  0.21030000  1
  C  C133  1  0.11200000  0.54930000  0.10310000  1
  C  C134  1  0.05800000  0.49050000  0.35000000  1
  C  C135  1  0.10660000  0.50530000  0.45300000  1
  C  C136  1  0.11040000  0.56950000  0.90460000  1
  C  C137  1  0.82887000  0.89913000  0.54363000  1
  C  C138  1  0.77867000  0.88263000  0.43643000  1
  C  C139  1  0.72467000  0.82383000  0.68333000  1
  C  C140  1  0.77327000  0.83863000  0.78633000  1
  C  C141  1  0.77707000  0.90283000  0.23793000  1
  C  C142  1  0.49553000  0.23247000  0.87697000  1
  C  C143  1  0.44533000  0.21597000  0.76977000  1
  C  C144  1  0.39133000  0.15717000  0.01667000  1
  C  C145  1  0.43993000  0.17197000  0.11967000  1
  C  C146  1  0.44373000  0.23617000  0.57127000  1
  C  C147  1  0.43420000  0.59640000  0.21030000  1
  C  C148  1  0.45070000  0.56270000  0.10310000  1
  C  C149  1  0.50950000  0.56750000  0.35000000  1
  C  C150  1  0.49470000  0.60130000  0.45300000  1
  C  C151  1  0.43050000  0.54090000  0.90460000  1
  C  C152  1  0.10087000  0.92973000  0.54363000  1
  C  C153  1  0.11737000  0.89603000  0.43643000  1
  C  C154  1  0.17617000  0.90083000  0.68333000  1
  C  C155  1  0.16137000  0.93463000  0.78633000  1
  C  C156  1  0.09717000  0.87423000  0.23793000  1
  C  C157  1  0.76753000  0.26307000  0.87697000  1
  C  C158  1  0.78403000  0.22937000  0.76977000  1
  C  C159  1  0.84283000  0.23417000  0.01667000  1
  C  C160  1  0.82803000  0.26797000  0.11967000  1
  C  C161  1  0.76383000  0.20757000  0.57127000  1
  C  C162  1  0.40360000  0.83780000  0.21030000  1
  C  C163  1  0.43730000  0.88800000  0.10310000  1
  C  C164  1  0.43250000  0.94200000  0.35000000  1
  C  C165  1  0.39870000  0.89340000  0.45300000  1
  C  C166  1  0.45910000  0.88960000  0.90460000  1
  C  C167  1  0.07027000  0.17113000  0.54363000  1
  C  C168  1  0.10397000  0.22133000  0.43643000  1
  C  C169  1  0.09917000  0.27533000  0.68333000  1
  C  C170  1  0.06537000  0.22673000  0.78633000  1
  C  C171  1  0.12577000  0.22293000  0.23793000  1
  C  C172  1  0.73693000  0.50447000  0.87697000  1
  C  C173  1  0.77063000  0.55467000  0.76977000  1
  C  C174  1  0.76583000  0.60867000  0.01667000  1
  C  C175  1  0.73203000  0.56007000  0.11967000  1
  C  C176  1  0.79243000  0.55627000  0.57127000  1
  N  N177  1  0.84315000  0.45870000  0.61470000  1
  N  N178  1  0.93850000  0.48740000  0.82270000  1
  N  N179  1  0.50982000  0.79203000  0.94803000  1
  N  N180  1  0.60517000  0.82073000  0.15603000  1
  N  N181  1  0.17648000  0.12537000  0.28137000  1
  N  N182  1  0.27183000  0.15407000  0.48937000  1
  N  N183  1  0.54130000  0.38445000  0.61470000  1
  N  N184  1  0.51260000  0.45110000  0.82270000  1
  N  N185  1  0.20797000  0.71778000  0.94803000  1
  N  N186  1  0.17927000  0.78443000  0.15603000  1
  N  N187  1  0.87463000  0.05112000  0.28137000  1
  N  N188  1  0.84593000  0.11777000  0.48937000  1
  N  N189  1  0.61555000  0.15685000  0.61470000  1
  N  N190  1  0.54890000  0.06150000  0.82270000  1
  N  N191  1  0.28222000  0.49018000  0.94803000  1
  N  N192  1  0.21557000  0.39483000  0.15603000  1
  N  N193  1  0.94888000  0.82352000  0.28137000  1
  N  N194  1  0.88223000  0.72817000  0.48937000  1
  N  N195  1  0.15685000  0.54130000  0.38530000  1
  N  N196  1  0.06150000  0.51260000  0.17730000  1
  N  N197  1  0.82352000  0.87463000  0.71863000  1
  N  N198  1  0.72817000  0.84593000  0.51063000  1
  N  N199  1  0.49018000  0.20797000  0.05197000  1
  N  N200  1  0.39483000  0.17927000  0.84397000  1
  N  N201  1  0.45870000  0.61555000  0.38530000  1
  N  N202  1  0.48740000  0.54890000  0.17730000  1
  N  N203  1  0.12537000  0.94888000  0.71863000  1
  N  N204  1  0.15407000  0.88223000  0.51063000  1
  N  N205  1  0.79203000  0.28222000  0.05197000  1
  N  N206  1  0.82073000  0.21557000  0.84397000  1
  N  N207  1  0.38445000  0.84315000  0.38530000  1
  N  N208  1  0.45110000  0.93850000  0.17730000  1
  N  N209  1  0.05112000  0.17648000  0.71863000  1
  N  N210  1  0.11777000  0.27183000  0.51063000  1
  N  N211  1  0.71778000  0.50982000  0.05197000  1
  N  N212  1  0.78443000  0.60517000  0.84397000  1
  O  O213  1  0.78788000  0.39840000  0.84140000  1
  O  O214  1  0.84571000  0.39787000  0.17850000  1
  O  O215  1  0.93860000  0.44940000  0.16730000  1
  O  O216  1  0.75692000  0.34114000  0.44570000  1
  O  O217  1  0.45455000  0.73173000  0.17473000  1
  O  O218  1  0.51238000  0.73120000  0.51183000  1
  O  O219  1  0.60527000  0.78273000  0.50063000  1
  O  O220  1  0.42359000  0.67447000  0.77903000  1
  O  O221  1  0.12121000  0.06507000  0.50807000  1
  O  O222  1  0.17904000  0.06454000  0.84517000  1
  O  O223  1  0.27193000  0.11607000  0.83397000  1
  O  O224  1  0.09025000  0.00781000  0.11237000  1
  O  O225  1  0.60160000  0.38948000  0.84140000  1
  O  O226  1  0.60213000  0.44784000  0.17850000  1
  O  O227  1  0.55060000  0.48920000  0.16730000  1
  O  O228  1  0.65886000  0.41578000  0.44570000  1
  O  O229  1  0.26827000  0.72281000  0.17473000  1
  O  O230  1  0.26880000  0.78117000  0.51183000  1
  O  O231  1  0.21727000  0.82253000  0.50063000  1
  O  O232  1  0.32553000  0.74911000  0.77903000  1
  O  O233  1  0.93493000  0.05615000  0.50807000  1
  O  O234  1  0.93546000  0.11451000  0.84517000  1
  O  O235  1  0.88393000  0.15587000  0.83397000  1
  O  O236  1  0.99219000  0.08245000  0.11237000  1
  O  O237  1  0.61052000  0.21212000  0.84140000  1
  O  O238  1  0.55216000  0.15429000  0.17850000  1
  O  O239  1  0.51080000  0.06140000  0.16730000  1
  O  O240  1  0.58422000  0.24308000  0.44570000  1
  O  O241  1  0.27719000  0.54545000  0.17473000  1
  O  O242  1  0.21883000  0.48762000  0.51183000  1
  O  O243  1  0.17747000  0.39473000  0.50063000  1
  O  O244  1  0.25089000  0.57641000  0.77903000  1
  O  O245  1  0.94385000  0.87879000  0.50807000  1
  O  O246  1  0.88549000  0.82096000  0.84517000  1
  O  O247  1  0.84413000  0.72807000  0.83397000  1
  O  O248  1  0.91755000  0.90975000  0.11237000  1
  O  O249  1  0.21212000  0.60160000  0.15860000  1
  O  O250  1  0.15429000  0.60213000  0.82150000  1
  O  O251  1  0.06140000  0.55060000  0.83270000  1
  O  O252  1  0.24308000  0.65886000  0.55430000  1
  O  O253  1  0.87879000  0.93493000  0.49193000  1
  O  O254  1  0.82096000  0.93546000  0.15483000  1
  O  O255  1  0.72807000  0.88393000  0.16603000  1
  O  O256  1  0.90975000  0.99219000  0.88763000  1
  O  O257  1  0.54545000  0.26827000  0.82527000  1
  O  O258  1  0.48762000  0.26880000  0.48817000  1
  O  O259  1  0.39473000  0.21727000  0.49937000  1
  O  O260  1  0.57641000  0.32553000  0.22097000  1
  O  O261  1  0.39840000  0.61052000  0.15860000  1
  O  O262  1  0.39787000  0.55216000  0.82150000  1
  O  O263  1  0.44940000  0.51080000  0.83270000  1
  O  O264  1  0.34114000  0.58422000  0.55430000  1
  O  O265  1  0.06507000  0.94385000  0.49193000  1
  O  O266  1  0.06454000  0.88549000  0.15483000  1
  O  O267  1  0.11607000  0.84413000  0.16603000  1
  O  O268  1  0.00781000  0.91755000  0.88763000  1
  O  O269  1  0.73173000  0.27719000  0.82527000  1
  O  O270  1  0.73120000  0.21883000  0.48817000  1
  O  O271  1  0.78273000  0.17747000  0.49937000  1
  O  O272  1  0.67447000  0.25089000  0.22097000  1
  O  O273  1  0.38948000  0.78788000  0.15860000  1
  O  O274  1  0.44784000  0.84571000  0.82150000  1
  O  O275  1  0.48920000  0.93860000  0.83270000  1
  O  O276  1  0.41578000  0.75692000  0.55430000  1
  O  O277  1  0.05615000  0.12121000  0.49193000  1
  O  O278  1  0.11451000  0.17904000  0.15483000  1
  O  O279  1  0.15587000  0.27193000  0.16603000  1
  O  O280  1  0.08245000  0.09025000  0.88763000  1
  O  O281  1  0.72281000  0.45455000  0.82527000  1
  O  O282  1  0.78117000  0.51238000  0.48817000  1
  O  O283  1  0.82253000  0.60527000  0.49937000  1
  O  O284  1  0.74911000  0.42359000  0.22097000  1
  O  O285  1  0.66666667  0.33333333  0.33333333  1
  O  O286  1  0.33333333  0.66666667  0.66666667  1
  O  O287  1  0.00000000  0.00000000  0.00000000  1
  O  O288  1  0.66666667  0.33333333  0.01590000  1
  O  O289  1  0.33333333  0.66666667  0.34923000  1
  O  O290  1  0.00000000  0.00000000  0.68257000  1
  O  O291  1  0.33333333  0.66666667  0.98410000  1
  O  O292  1  0.00000000  0.00000000  0.31743000  1
  O  O293  1  0.66666667  0.33333333  0.65077000  1
