# generated using pymatgen
data_MgHC4O3
_symmetry_space_group_name_H-M   'P 1'
_cell_length_a   6.71920000
_cell_length_b   15.24020000
_cell_length_c   15.24020000
_cell_angle_alpha   62.12120000
_cell_angle_beta   81.54900000
_cell_angle_gamma   98.45100000
_symmetry_Int_Tables_number   1
_chemical_formula_structural   MgHC4O3
_chemical_formula_sum   'Mg6 H6 C24 O18'
_cell_volume   1322.35079046
_cell_formula_units_Z   6
loop_
 _symmetry_equiv_pos_site_id
 _symmetry_equiv_pos_as_xyz
  1  'x, y, z'
loop_
 _atom_site_type_symbol
 _atom_site_label
 _atom_site_symmetry_multiplicity
 _atom_site_fract_x
 _atom_site_fract_y
 _atom_site_fract_z
 _atom_site_occupancy
  Mg  Mg0  1  0.30199000  0.26484000  0.31420000  1.0
  Mg  Mg1  1  0.61619000  0.31420000  0.42096000  1.0
  Mg  Mg2  1  0.03715000  0.42096000  0.26484000  1.0
  Mg  Mg3  1  0.69801000  0.73516000  0.68580000  1.0
  Mg  Mg4  1  0.38381000  0.68580000  0.57904000  1.0
  Mg  Mg5  1  0.96285000  0.57904000  0.73516000  1.0
  H  H6  1  0.30210000  0.46880000  0.54780000  1.0
  H  H7  1  0.84990000  0.54780000  0.98340000  1.0
  H  H8  1  0.83330000  0.98340000  0.46880000  1.0
  H  H9  1  0.69790000  0.53120000  0.45220000  1.0
  H  H10  1  0.15010000  0.45220000  0.01660000  1.0
  H  H11  1  0.16670000  0.01660000  0.53120000  1.0
  C  C12  1  0.23990000  0.38720000  0.43740000  1.0
  C  C13  1  0.11350000  0.44700000  0.46570000  1.0
  C  C14  1  0.92880000  0.46700000  0.43380000  1.0
  C  C15  1  0.17900000  0.48130000  0.52910000  1.0
  C  C16  1  0.67730000  0.43740000  0.17540000  1.0
  C  C17  1  0.57920000  0.46570000  0.08730000  1.0
  C  C18  1  0.36260000  0.43380000  0.09920000  1.0
  C  C19  1  0.70810000  0.52910000  0.98960000  1.0
  C  C20  1  0.85270000  0.17540000  0.38720000  1.0
  C  C21  1  0.66650000  0.08730000  0.44700000  1.0
  C  C22  1  0.46180000  0.09920000  0.46700000  1.0
  C  C23  1  0.69770000  0.98960000  0.48130000  1.0
  C  C24  1  0.76010000  0.61280000  0.56260000  1.0
  C  C25  1  0.88650000  0.55300000  0.53430000  1.0
  C  C26  1  0.07120000  0.53300000  0.56620000  1.0
  C  C27  1  0.82100000  0.51870000  0.47090000  1.0
  C  C28  1  0.32270000  0.56260000  0.82460000  1.0
  C  C29  1  0.42080000  0.53430000  0.91270000  1.0
  C  C30  1  0.63740000  0.56620000  0.90080000  1.0
  C  C31  1  0.29190000  0.47090000  0.01040000  1.0
  C  C32  1  0.14730000  0.82460000  0.61280000  1.0
  C  C33  1  0.33350000  0.91270000  0.55300000  1.0
  C  C34  1  0.53820000  0.90080000  0.53300000  1.0
  C  C35  1  0.30230000  0.01040000  0.51870000  1.0
  O  O36  1  0.18650000  0.35420000  0.37950000  1.0
  O  O37  1  0.39580000  0.36770000  0.47460000  1.0
  O  O38  1  0.85290000  0.44090000  0.36990000  1.0
  O  O39  1  0.56600000  0.37950000  0.26630000  1.0
  O  O40  1  0.87040000  0.47460000  0.15770000  1.0
  O  O41  1  0.22280000  0.36990000  0.18920000  1.0
  O  O42  1  0.83230000  0.26630000  0.35420000  1.0
  O  O43  1  0.02810000  0.15770000  0.36770000  1.0
  O  O44  1  0.41200000  0.18920000  0.44090000  1.0
  O  O45  1  0.81350000  0.64580000  0.62050000  1.0
  O  O46  1  0.60420000  0.63230000  0.52540000  1.0
  O  O47  1  0.14710000  0.55910000  0.63010000  1.0
  O  O48  1  0.43400000  0.62050000  0.73370000  1.0
  O  O49  1  0.12960000  0.52540000  0.84230000  1.0
  O  O50  1  0.77720000  0.63010000  0.81080000  1.0
  O  O51  1  0.16770000  0.73370000  0.64580000  1.0
  O  O52  1  0.97190000  0.84230000  0.63230000  1.0
  O  O53  1  0.58800000  0.81080000  0.55910000  1.0
