# generated using pymatgen
data_Be5P7(HO4)7
_symmetry_space_group_name_H-M   'P 1'
_cell_length_a   14.69580000
_cell_length_b   11.64510000
_cell_length_c   20.59120000
_cell_angle_alpha   90.00000000
_cell_angle_beta   93.81100000
_cell_angle_gamma   90.00000000
_symmetry_Int_Tables_number   1
_chemical_formula_structural   Be5P7(HO4)7
_chemical_formula_sum   'Be20 P28 H28 O112'
_cell_volume   3516.06345860
_cell_formula_units_Z   4
loop_
 _symmetry_equiv_pos_site_id
 _symmetry_equiv_pos_as_xyz
  1  'x, y, z'
loop_
 _atom_site_type_symbol
 _atom_site_label
 _atom_site_symmetry_multiplicity
 _atom_site_fract_x
 _atom_site_fract_y
 _atom_site_fract_z
 _atom_site_occupancy
  Be  Be0  1  0.60060000  0.67320000  0.23520000  1.0
  Be  Be1  1  0.65510000  0.71830000  0.50640000  1.0
  Be  Be2  1  0.41450000  0.93090000  0.63780000  1.0
  Be  Be3  1  0.34720000  0.61430000  0.59610000  1.0
  Be  Be4  1  0.38150000  0.27440000  0.61700000  1.0
  Be  Be5  1  0.10060000  0.17320000  0.23520000  1.0
  Be  Be6  1  0.15510000  0.21830000  0.50640000  1.0
  Be  Be7  1  0.91450000  0.43090000  0.63780000  1.0
  Be  Be8  1  0.84720000  0.11430000  0.59610000  1.0
  Be  Be9  1  0.88150000  0.77440000  0.61700000  1.0
  Be  Be10  1  0.60060000  0.32680000  0.73520000  1.0
  Be  Be11  1  0.65510000  0.28170000  0.00640000  1.0
  Be  Be12  1  0.41450000  0.06910000  0.13780000  1.0
  Be  Be13  1  0.34720000  0.38570000  0.09610000  1.0
  Be  Be14  1  0.38150000  0.72560000  0.11700000  1.0
  Be  Be15  1  0.10060000  0.82680000  0.73520000  1.0
  Be  Be16  1  0.15510000  0.78170000  0.00640000  1.0
  Be  Be17  1  0.91450000  0.56910000  0.13780000  1.0
  Be  Be18  1  0.84720000  0.88570000  0.09610000  1.0
  Be  Be19  1  0.88150000  0.22560000  0.11700000  1.0
  P  P20  1  0.63580000  0.75094000  0.36466000  1.0
  P  P21  1  0.47546000  0.77014000  0.54238000  1.0
  P  P22  1  0.28683000  0.77268000  0.69556000  1.0
  P  P23  1  0.44169000  0.46336000  0.69596000  1.0
  P  P24  1  0.28540000  0.41309000  0.52246000  1.0
  P  P25  1  0.26498000  0.08341000  0.59238000  1.0
  P  P26  1  0.52723000  0.13046000  0.66128000  1.0
  P  P27  1  0.13580000  0.25094000  0.36466000  1.0
  P  P28  1  0.97546000  0.27014000  0.54238000  1.0
  P  P29  1  0.78683000  0.27268000  0.69556000  1.0
  P  P30  1  0.94169000  0.96336000  0.69596000  1.0
  P  P31  1  0.78540000  0.91309000  0.52246000  1.0
  P  P32  1  0.76498000  0.58341000  0.59238000  1.0
  P  P33  1  0.02723000  0.63046000  0.66128000  1.0
  P  P34  1  0.63580000  0.24906000  0.86466000  1.0
  P  P35  1  0.47546000  0.22986000  0.04238000  1.0
  P  P36  1  0.28683000  0.22732000  0.19556000  1.0
  P  P37  1  0.44169000  0.53664000  0.19596000  1.0
  P  P38  1  0.28540000  0.58691000  0.02246000  1.0
  P  P39  1  0.26498000  0.91659000  0.09238000  1.0
  P  P40  1  0.52723000  0.86954000  0.16128000  1.0
  P  P41  1  0.13580000  0.74906000  0.86466000  1.0
  P  P42  1  0.97546000  0.72986000  0.04238000  1.0
  P  P43  1  0.78683000  0.72732000  0.19556000  1.0
  P  P44  1  0.94169000  0.03664000  0.19596000  1.0
  P  P45  1  0.78540000  0.08691000  0.02246000  1.0
  P  P46  1  0.76498000  0.41659000  0.09238000  1.0
  P  P47  1  0.02723000  0.36954000  0.16128000  1.0
  H  H48  1  0.54540000  0.85020000  0.31800000  1.0
  H  H49  1  0.50150000  0.81120000  0.45180000  1.0
  H  H50  1  0.26990000  0.71270000  0.78440000  1.0
  H  H51  1  0.37990000  0.56700000  0.75810000  1.0
  H  H52  1  0.27810000  0.39940000  0.42450000  1.0
  H  H53  1  0.20350000  0.97370000  0.64930000  1.0
  H  H54  1  0.65600000  0.12550000  0.63700000  1.0
  H  H55  1  0.04540000  0.35020000  0.31800000  1.0
  H  H56  1  0.00150000  0.31120000  0.45180000  1.0
  H  H57  1  0.76990000  0.21270000  0.78440000  1.0
  H  H58  1  0.87990000  0.06700000  0.75810000  1.0
  H  H59  1  0.77810000  0.89940000  0.42450000  1.0
  H  H60  1  0.70350000  0.47370000  0.64930000  1.0
  H  H61  1  0.15600000  0.62550000  0.63700000  1.0
  H  H62  1  0.54540000  0.14980000  0.81800000  1.0
  H  H63  1  0.50150000  0.18880000  0.95180000  1.0
  H  H64  1  0.26990000  0.28730000  0.28440000  1.0
  H  H65  1  0.37990000  0.43300000  0.25810000  1.0
  H  H66  1  0.27810000  0.60060000  0.92450000  1.0
  H  H67  1  0.20350000  0.02630000  0.14930000  1.0
  H  H68  1  0.65600000  0.87450000  0.13700000  1.0
  H  H69  1  0.04540000  0.64980000  0.81800000  1.0
  H  H70  1  0.00150000  0.68880000  0.95180000  1.0
  H  H71  1  0.76990000  0.78730000  0.28440000  1.0
  H  H72  1  0.87990000  0.93300000  0.25810000  1.0
  H  H73  1  0.77810000  0.10060000  0.92450000  1.0
  H  H74  1  0.70350000  0.52630000  0.14930000  1.0
  H  H75  1  0.15600000  0.37450000  0.13700000  1.0
  O  O76  1  0.61640000  0.66080000  0.31310000  1.0
  O  O77  1  0.62710000  0.70240000  0.42943000  1.0
  O  O78  1  0.56220000  0.84390000  0.35660000  1.0
  O  O79  1  0.72700000  0.80630000  0.35770000  1.0
  O  O80  1  0.56360000  0.70340000  0.54467000  1.0
  O  O81  1  0.48000000  0.85920000  0.59486000  1.0
  O  O82  1  0.39390000  0.69270000  0.54522000  1.0
  O  O83  1  0.46230000  0.83270000  0.47564000  1.0
  O  O84  1  0.36430000  0.85530000  0.69057000  1.0
  O  O85  1  0.27450000  0.69180000  0.63801000  1.0
  O  O86  1  0.19800000  0.83910000  0.70187000  1.0
  O  O87  1  0.30780000  0.69890000  0.75794000  1.0
  O  O88  1  0.42580000  0.55710000  0.64651000  1.0
  O  O89  1  0.38400000  0.35730000  0.68020000  1.0
  O  O90  1  0.41110000  0.50910000  0.76397000  1.0
  O  O91  1  0.54100000  0.43280000  0.70654000  1.0
  O  O92  1  0.27920000  0.52460000  0.55874000  1.0
  O  O93  1  0.36770000  0.34270000  0.54827000  1.0
  O  O94  1  0.30390000  0.44570000  0.44947000  1.0
  O  O95  1  0.19770000  0.34570000  0.52157000  1.0
  O  O96  1  0.29810000  0.18920000  0.63098000  1.0
  O  O97  1  0.18620000  0.03290000  0.63090000  1.0
  O  O98  1  0.22550000  0.11640000  0.52525000  1.0
  O  O99  1  0.33970000  0.99550000  0.58553000  1.0
  O  O100  1  0.47740000  0.20550000  0.61024000  1.0
  O  O101  1  0.47140000  0.02900000  0.68074000  1.0
  O  O102  1  0.61300000  0.08120000  0.63022000  1.0
  O  O103  1  0.55510000  0.20040000  0.72194000  1.0
  O  O104  1  0.11640000  0.16080000  0.31310000  1.0
  O  O105  1  0.12710000  0.20240000  0.42943000  1.0
  O  O106  1  0.06220000  0.34390000  0.35660000  1.0
  O  O107  1  0.22700000  0.30630000  0.35770000  1.0
  O  O108  1  0.06360000  0.20340000  0.54467000  1.0
  O  O109  1  0.98000000  0.35920000  0.59486000  1.0
  O  O110  1  0.89390000  0.19270000  0.54522000  1.0
  O  O111  1  0.96230000  0.33270000  0.47564000  1.0
  O  O112  1  0.86430000  0.35530000  0.69057000  1.0
  O  O113  1  0.77450000  0.19180000  0.63801000  1.0
  O  O114  1  0.69800000  0.33910000  0.70187000  1.0
  O  O115  1  0.80780000  0.19890000  0.75794000  1.0
  O  O116  1  0.92580000  0.05710000  0.64651000  1.0
  O  O117  1  0.88400000  0.85730000  0.68020000  1.0
  O  O118  1  0.91110000  0.00910000  0.76397000  1.0
  O  O119  1  0.04100000  0.93280000  0.70654000  1.0
  O  O120  1  0.77920000  0.02460000  0.55874000  1.0
  O  O121  1  0.86770000  0.84270000  0.54827000  1.0
  O  O122  1  0.80390000  0.94570000  0.44947000  1.0
  O  O123  1  0.69770000  0.84570000  0.52157000  1.0
  O  O124  1  0.79810000  0.68920000  0.63098000  1.0
  O  O125  1  0.68620000  0.53290000  0.63090000  1.0
  O  O126  1  0.72550000  0.61640000  0.52525000  1.0
  O  O127  1  0.83970000  0.49550000  0.58553000  1.0
  O  O128  1  0.97740000  0.70550000  0.61024000  1.0
  O  O129  1  0.97140000  0.52900000  0.68074000  1.0
  O  O130  1  0.11300000  0.58120000  0.63022000  1.0
  O  O131  1  0.05510000  0.70040000  0.72194000  1.0
  O  O132  1  0.61640000  0.33920000  0.81310000  1.0
  O  O133  1  0.62710000  0.29760000  0.92943000  1.0
  O  O134  1  0.56220000  0.15610000  0.85660000  1.0
  O  O135  1  0.72700000  0.19370000  0.85770000  1.0
  O  O136  1  0.56360000  0.29660000  0.04467000  1.0
  O  O137  1  0.48000000  0.14080000  0.09486000  1.0
  O  O138  1  0.39390000  0.30730000  0.04522000  1.0
  O  O139  1  0.46230000  0.16730000  0.97564000  1.0
  O  O140  1  0.36430000  0.14470000  0.19057000  1.0
  O  O141  1  0.27450000  0.30820000  0.13801000  1.0
  O  O142  1  0.19800000  0.16090000  0.20187000  1.0
  O  O143  1  0.30780000  0.30110000  0.25794000  1.0
  O  O144  1  0.42580000  0.44290000  0.14651000  1.0
  O  O145  1  0.38400000  0.64270000  0.18020000  1.0
  O  O146  1  0.41110000  0.49090000  0.26397000  1.0
  O  O147  1  0.54100000  0.56720000  0.20654000  1.0
  O  O148  1  0.27920000  0.47540000  0.05874000  1.0
  O  O149  1  0.36770000  0.65730000  0.04827000  1.0
  O  O150  1  0.30390000  0.55430000  0.94947000  1.0
  O  O151  1  0.19770000  0.65430000  0.02157000  1.0
  O  O152  1  0.29810000  0.81080000  0.13098000  1.0
  O  O153  1  0.18620000  0.96710000  0.13090000  1.0
  O  O154  1  0.22550000  0.88360000  0.02525000  1.0
  O  O155  1  0.33970000  0.00450000  0.08553000  1.0
  O  O156  1  0.47740000  0.79450000  0.11024000  1.0
  O  O157  1  0.47140000  0.97100000  0.18074000  1.0
  O  O158  1  0.61300000  0.91880000  0.13022000  1.0
  O  O159  1  0.55510000  0.79960000  0.22194000  1.0
  O  O160  1  0.11640000  0.83920000  0.81310000  1.0
  O  O161  1  0.12710000  0.79760000  0.92943000  1.0
  O  O162  1  0.06220000  0.65610000  0.85660000  1.0
  O  O163  1  0.22700000  0.69370000  0.85770000  1.0
  O  O164  1  0.06360000  0.79660000  0.04467000  1.0
  O  O165  1  0.98000000  0.64080000  0.09486000  1.0
  O  O166  1  0.89390000  0.80730000  0.04522000  1.0
  O  O167  1  0.96230000  0.66730000  0.97564000  1.0
  O  O168  1  0.86430000  0.64470000  0.19057000  1.0
  O  O169  1  0.77450000  0.80820000  0.13801000  1.0
  O  O170  1  0.69800000  0.66090000  0.20187000  1.0
  O  O171  1  0.80780000  0.80110000  0.25794000  1.0
  O  O172  1  0.92580000  0.94290000  0.14651000  1.0
  O  O173  1  0.88400000  0.14270000  0.18020000  1.0
  O  O174  1  0.91110000  0.99090000  0.26397000  1.0
  O  O175  1  0.04100000  0.06720000  0.20654000  1.0
  O  O176  1  0.77920000  0.97540000  0.05874000  1.0
  O  O177  1  0.86770000  0.15730000  0.04827000  1.0
  O  O178  1  0.80390000  0.05430000  0.94947000  1.0
  O  O179  1  0.69770000  0.15430000  0.02157000  1.0
  O  O180  1  0.79810000  0.31080000  0.13098000  1.0
  O  O181  1  0.68620000  0.46710000  0.13090000  1.0
  O  O182  1  0.72550000  0.38360000  0.02525000  1.0
  O  O183  1  0.83970000  0.50450000  0.08553000  1.0
  O  O184  1  0.97740000  0.29450000  0.11024000  1.0
  O  O185  1  0.97140000  0.47100000  0.18074000  1.0
  O  O186  1  0.11300000  0.41880000  0.13022000  1.0
  O  O187  1  0.05510000  0.29960000  0.22194000  1.0
