# generated using pymatgen
data_HoH27C30(NO2)3
_symmetry_space_group_name_H-M   'P 1'
_cell_length_a   9.46440000
_cell_length_b   12.72060000
_cell_length_c   18.55390000
_cell_angle_alpha   106.20600000
_cell_angle_beta   97.89300000
_cell_angle_gamma   100.26600000
_symmetry_Int_Tables_number   1
_chemical_formula_structural   HoH27C30(NO2)3
_chemical_formula_sum   'Ho2 H54 C60 N6 O12'
_cell_volume   2068.88283419
_cell_formula_units_Z   2
loop_
 _symmetry_equiv_pos_site_id
 _symmetry_equiv_pos_as_xyz
  1  'x, y, z'
loop_
 _atom_site_type_symbol
 _atom_site_label
 _atom_site_symmetry_multiplicity
 _atom_site_fract_x
 _atom_site_fract_y
 _atom_site_fract_z
 _atom_site_occupancy
  Ho  Ho0  1  0.26384000  0.48509000  0.49728000  1
  Ho  Ho1  1  0.73616000  0.51491000  0.50272000  1
  H  H2  1  0.57740000  0.04840000  0.09480000  1
  H  H3  1  0.42750000  0.07180000  0.05860000  1
  H  H4  1  0.61150000  0.68120000  0.09740000  1
  H  H5  1  0.47210000  0.57780000  0.06410000  1
  H  H6  1  0.99920000  0.76820000  0.96000000  1
  H  H7  1  0.00310000  0.64700000  0.96850000  1
  H  H8  1  0.66220000  0.83570000  0.16850000  1
  H  H9  1  0.60470000  0.94570000  0.20550000  1
  H  H10  1  0.68880000  0.93990000  0.13570000  1
  H  H11  1  0.29140000  0.51980000  0.98840000  1
  H  H12  1  0.13420000  0.54170000  0.96150000  1
  H  H13  1  0.18240000  0.53950000  0.04700000  1
  H  H14  1  0.13390000  0.90460000  0.93820000  1
  H  H15  1  0.25000000  0.01450000  0.99370000  1
  H  H16  1  0.10800000  0.96440000  0.02190000  1
  H  H17  1  0.67220000  0.16250000  0.21700000  1
  H  H18  1  0.64900000  0.27600000  0.33530000  1
  H  H19  1  0.20830000  0.18020000  0.26710000  1
  H  H20  1  0.23800000  0.06360000  0.15160000  1
  H  H21  1  0.71390000  0.64300000  0.20330000  1
  H  H22  1  0.71010000  0.62050000  0.32300000  1
  H  H23  1  0.27990000  0.62590000  0.29350000  1
  H  H24  1  0.29280000  0.65340000  0.17660000  1
  H  H25  1  0.27150000  0.65790000  0.88250000  1
  H  H26  1  0.27290000  0.58570000  0.75290000  1
  H  H27  1  0.84400000  0.58830000  0.70460000  1
  H  H28  1  0.85090000  0.66250000  0.83590000  1
  H  H29  1  0.42260000  0.95160000  0.90520000  1
  H  H30  1  0.57250000  0.92820000  0.94140000  1
  H  H31  1  0.38850000  0.31880000  0.90260000  1
  H  H32  1  0.52790000  0.42220000  0.93590000  1
  H  H33  1  0.00080000  0.23180000  0.04000000  1
  H  H34  1  0.99690000  0.35300000  0.03150000  1
  H  H35  1  0.33780000  0.16430000  0.83150000  1
  H  H36  1  0.39530000  0.05430000  0.79450000  1
  H  H37  1  0.31120000  0.06010000  0.86430000  1
  H  H38  1  0.70860000  0.48020000  0.01160000  1
  H  H39  1  0.86580000  0.45830000  0.03850000  1
  H  H40  1  0.81760000  0.46050000  0.95300000  1
  H  H41  1  0.86610000  0.09540000  0.06180000  1
  H  H42  1  0.75000000  0.98550000  0.00630000  1
  H  H43  1  0.89200000  0.03560000  0.97810000  1
  H  H44  1  0.32780000  0.83750000  0.78300000  1
  H  H45  1  0.35100000  0.72400000  0.66470000  1
  H  H46  1  0.79170000  0.81980000  0.73290000  1
  H  H47  1  0.76200000  0.93640000  0.84840000  1
  H  H48  1  0.28610000  0.35700000  0.79670000  1
  H  H49  1  0.28990000  0.37950000  0.67700000  1
  H  H50  1  0.72010000  0.37410000  0.70650000  1
  H  H51  1  0.70720000  0.34660000  0.82340000  1
  H  H52  1  0.72850000  0.34210000  0.11750000  1
  H  H53  1  0.72710000  0.41430000  0.24710000  1
  H  H54  1  0.15600000  0.41170000  0.29540000  1
  H  H55  1  0.14910000  0.33750000  0.16410000  1
  C  C56  1  0.40170000  0.91690000  0.07400000  1
  C  C57  1  0.47780000  0.84700000  0.10220000  1
  C  C58  1  0.41860000  0.73060000  0.07810000  1
  C  C59  1  0.28190000  0.68500000  0.02990000  1
  C  C60  1  0.20590000  0.75650000  0.00380000  1
  C  C61  1  0.26600000  0.87210000  0.02350000  1
  C  C62  1  0.47210000  0.03990000  0.09670000  1
  C  C63  1  0.50850000  0.65450000  0.10080000  1
  C  C64  1  0.05560000  0.70880000  0.95270000  1
  C  C65  1  0.62070000  0.89630000  0.15780000  1
  C  C66  1  0.21680000  0.56070000  0.00450000  1
  C  C67  1  0.18210000  0.94540000  0.99150000  1
  C  C68  1  0.57760000  0.16690000  0.22740000  1
  C  C69  1  0.56410000  0.23540000  0.29720000  1
  C  C70  1  0.42740000  0.24460000  0.31140000  1
  C  C71  1  0.30370000  0.17800000  0.25700000  1
  C  C72  1  0.32160000  0.10930000  0.18880000  1
  C  C73  1  0.41130000  0.32850000  0.38380000  1
  C  C74  1  0.62580000  0.63990000  0.22260000  1
  C  C75  1  0.62330000  0.62560000  0.29290000  1
  C  C76  1  0.49400000  0.61880000  0.32020000  1
  C  C77  1  0.36960000  0.62950000  0.27570000  1
  C  C78  1  0.37730000  0.64530000  0.20680000  1
  C  C79  1  0.48790000  0.59640000  0.39580000  1
  C  C80  1  0.18460000  0.64350000  0.84540000  1
  C  C81  1  0.18590000  0.60170000  0.76900000  1
  C  C82  1  0.05900000  0.58280000  0.71530000  1
  C  C83  1  0.93280000  0.60340000  0.74050000  1
  C  C84  1  0.93650000  0.64620000  0.81820000  1
  C  C85  1  0.06100000  0.54200000  0.62990000  1
  C  C86  1  0.59830000  0.08310000  0.92600000  1
  C  C87  1  0.52220000  0.15300000  0.89780000  1
  C  C88  1  0.58140000  0.26940000  0.92190000  1
  C  C89  1  0.71810000  0.31500000  0.97010000  1
  C  C90  1  0.79410000  0.24350000  0.99620000  1
  C  C91  1  0.73400000  0.12790000  0.97650000  1
  C  C92  1  0.52790000  0.96010000  0.90330000  1
  C  C93  1  0.49150000  0.34550000  0.89920000  1
  C  C94  1  0.94440000  0.29120000  0.04730000  1
  C  C95  1  0.37930000  0.10370000  0.84220000  1
  C  C96  1  0.78320000  0.43930000  0.99550000  1
  C  C97  1  0.81790000  0.05460000  0.00850000  1
  C  C98  1  0.42240000  0.83310000  0.77260000  1
  C  C99  1  0.43590000  0.76460000  0.70280000  1
  C  C100  1  0.57260000  0.75540000  0.68860000  1
  C  C101  1  0.69630000  0.82200000  0.74300000  1
  C  C102  1  0.67840000  0.89070000  0.81120000  1
  C  C103  1  0.58870000  0.67150000  0.61620000  1
  C  C104  1  0.37420000  0.36010000  0.77740000  1
  C  C105  1  0.37670000  0.37440000  0.70710000  1
  C  C106  1  0.50600000  0.38120000  0.67980000  1
  C  C107  1  0.63040000  0.37050000  0.72430000  1
  C  C108  1  0.62270000  0.35470000  0.79320000  1
  C  C109  1  0.51210000  0.40360000  0.60420000  1
  C  C110  1  0.81540000  0.35650000  0.15460000  1
  C  C111  1  0.81410000  0.39830000  0.23100000  1
  C  C112  1  0.94100000  0.41720000  0.28470000  1
  C  C113  1  0.06720000  0.39660000  0.25950000  1
  C  C114  1  0.06350000  0.35380000  0.18180000  1
  C  C115  1  0.93900000  0.45800000  0.37010000  1
  N  N116  1  0.45810000  0.10630000  0.17410000  1
  N  N117  1  0.50410000  0.64940000  0.18080000  1
  N  N118  1  0.06080000  0.66430000  0.86800000  1
  N  N119  1  0.54190000  0.89370000  0.82590000  1
  N  N120  1  0.49590000  0.35060000  0.81920000  1
  N  N121  1  0.93920000  0.33570000  0.13200000  1
  O  O122  1  0.28400000  0.33333333  0.39430000  1
  O  O123  1  0.52670000  0.39130000  0.42690000  1
  O  O124  1  0.36450000  0.56200000  0.40770000  1
  O  O125  1  0.61100000  0.61350000  0.43870000  1
  O  O126  1  0.17960000  0.52380000  0.61317000  1
  O  O127  1  0.94680000  0.53290000  0.58529000  1
  O  O128  1  0.71600000  0.66666667  0.60570000  1
  O  O129  1  0.47330000  0.60870000  0.57310000  1
  O  O130  1  0.63550000  0.43800000  0.59230000  1
  O  O131  1  0.38900000  0.38650000  0.56130000  1
  O  O132  1  0.82040000  0.47620000  0.38683000  1
  O  O133  1  0.05320000  0.46710000  0.41471000  1
