# generated using pymatgen
data_Zr3H26(C21O8)2
_symmetry_space_group_name_H-M   'P 1'
_cell_length_a   26.78300000
_cell_length_b   26.78300000
_cell_length_c   26.78300000
_cell_angle_alpha   90.00000000
_cell_angle_beta   90.00000000
_cell_angle_gamma   90.00000000
_symmetry_Int_Tables_number   1
_chemical_formula_structural   Zr3H26(C21O8)2
_chemical_formula_sum   'Zr24 H208 C336 O128'
_cell_volume   19212.22499069
_cell_formula_units_Z   8
loop_
 _symmetry_equiv_pos_site_id
 _symmetry_equiv_pos_as_xyz
  1  'x, y, z'
loop_
 _atom_site_type_symbol
 _atom_site_label
 _atom_site_symmetry_multiplicity
 _atom_site_fract_x
 _atom_site_fract_y
 _atom_site_fract_z
 _atom_site_occupancy
  Zr  Zr0  1  0.00011000  0.08839000  0.00001000  1.0
  Zr  Zr1  1  0.08840000  0.99985000  0.00003000  1.0
  Zr  Zr2  1  0.91161000  0.00016000  0.00003000  1.0
  Zr  Zr3  1  0.00000000  0.00001000  0.08839000  1.0
  Zr  Zr4  1  0.00000000  0.00001000  0.91164000  1.0
  Zr  Zr5  1  0.99990000  0.91163000  0.00001000  1.0
  Zr  Zr6  1  0.50011000  0.58839000  0.00001000  1.0
  Zr  Zr7  1  0.58840000  0.49985000  0.00003000  1.0
  Zr  Zr8  1  0.41161000  0.50016000  0.00003000  1.0
  Zr  Zr9  1  0.50000000  0.50001000  0.08839000  1.0
  Zr  Zr10  1  0.50000000  0.50001000  0.91164000  1.0
  Zr  Zr11  1  0.49990000  0.41163000  0.00001000  1.0
  Zr  Zr12  1  0.99990000  0.58841000  0.49998000  1.0
  Zr  Zr13  1  0.08838000  0.50017000  0.49994000  1.0
  Zr  Zr14  1  0.91163000  0.49985000  0.49994000  1.0
  Zr  Zr15  1  0.00000000  0.50001000  0.58835000  1.0
  Zr  Zr16  1  0.00000000  0.50001000  0.41160000  1.0
  Zr  Zr17  1  0.00011000  0.41161000  0.49998000  1.0
  Zr  Zr18  1  0.49990000  0.08841000  0.49998000  1.0
  Zr  Zr19  1  0.58838000  0.00017000  0.49994000  1.0
  Zr  Zr20  1  0.41163000  0.99985000  0.49994000  1.0
  Zr  Zr21  1  0.50000000  0.00001000  0.58835000  1.0
  Zr  Zr22  1  0.50000000  0.00001000  0.41160000  1.0
  Zr  Zr23  1  0.50011000  0.91161000  0.49998000  1.0
  H  H24  1  0.06650000  0.06632000  0.06639000  1.0
  H  H25  1  0.93369000  0.06651000  0.93360000  1.0
  H  H26  1  0.93351000  0.93370000  0.06639000  1.0
  H  H27  1  0.06632000  0.93350000  0.93360000  1.0
  H  H28  1  0.56650000  0.56632000  0.06639000  1.0
  H  H29  1  0.43369000  0.56651000  0.93360000  1.0
  H  H30  1  0.43351000  0.43370000  0.06639000  1.0
  H  H31  1  0.56632000  0.43350000  0.93360000  1.0
  H  H32  1  0.06631000  0.56652000  0.56638000  1.0
  H  H33  1  0.93351000  0.56633000  0.43360000  1.0
  H  H34  1  0.93370000  0.43350000  0.56638000  1.0
  H  H35  1  0.06650000  0.43369000  0.43360000  1.0
  H  H36  1  0.56631000  0.06652000  0.56638000  1.0
  H  H37  1  0.43351000  0.06633000  0.43360000  1.0
  H  H38  1  0.43370000  0.93350000  0.56638000  1.0
  H  H39  1  0.56650000  0.93369000  0.43360000  1.0
  H  H40  1  0.10512000  0.21477000  0.01848000  1.0
  H  H41  1  0.21458000  0.10486000  0.97517000  1.0
  H  H42  1  0.39489000  0.28525000  0.01848000  1.0
  H  H43  1  0.28543000  0.39516000  0.97517000  1.0
  H  H44  1  0.27876000  0.16938000  0.97338000  1.0
  H  H45  1  0.33048000  0.22104000  0.01885000  1.0
  H  H46  1  0.16953000  0.27898000  0.01885000  1.0
  H  H47  1  0.22125000  0.33063000  0.97338000  1.0
  H  H48  1  0.10491000  0.71456000  0.47483000  1.0
  H  H49  1  0.21470000  0.60519000  0.51869000  1.0
  H  H50  1  0.39510000  0.78546000  0.47483000  1.0
  H  H51  1  0.28531000  0.89482000  0.51869000  1.0
  H  H52  1  0.27894000  0.66960000  0.51899000  1.0
  H  H53  1  0.33056000  0.72127000  0.47309000  1.0
  H  H54  1  0.16945000  0.77875000  0.47309000  1.0
  H  H55  1  0.22107000  0.83042000  0.51899000  1.0
  H  H56  1  0.78543000  0.89516000  0.97517000  1.0
  H  H57  1  0.89489000  0.78525000  0.01848000  1.0
  H  H58  1  0.71458000  0.60486000  0.97517000  1.0
  H  H59  1  0.60512000  0.71477000  0.01848000  1.0
  H  H60  1  0.83048000  0.72104000  0.01885000  1.0
  H  H61  1  0.77876000  0.66938000  0.97338000  1.0
  H  H62  1  0.72125000  0.83063000  0.97338000  1.0
  H  H63  1  0.66953000  0.77898000  0.01885000  1.0
  H  H64  1  0.78531000  0.39482000  0.51869000  1.0
  H  H65  1  0.89510000  0.28546000  0.47483000  1.0
  H  H66  1  0.71470000  0.10519000  0.51869000  1.0
  H  H67  1  0.60491000  0.21456000  0.47483000  1.0
  H  H68  1  0.83056000  0.22127000  0.47309000  1.0
  H  H69  1  0.77894000  0.16960000  0.51899000  1.0
  H  H70  1  0.72107000  0.33042000  0.51899000  1.0
  H  H71  1  0.66945000  0.27875000  0.47309000  1.0
  H  H72  1  0.78579000  0.10501000  0.02518000  1.0
  H  H73  1  0.89497000  0.21510000  0.98161000  1.0
  H  H74  1  0.71422000  0.39501000  0.02518000  1.0
  H  H75  1  0.60504000  0.28491000  0.98161000  1.0
  H  H76  1  0.83039000  0.27918000  0.98128000  1.0
  H  H77  1  0.77854000  0.33065000  0.02695000  1.0
  H  H78  1  0.72147000  0.16936000  0.02695000  1.0
  H  H79  1  0.66962000  0.22084000  0.98128000  1.0
  H  H80  1  0.78496000  0.60506000  0.48144000  1.0
  H  H81  1  0.89500000  0.71422000  0.52518000  1.0
  H  H82  1  0.71505000  0.89496000  0.48144000  1.0
  H  H83  1  0.60501000  0.78580000  0.52518000  1.0
  H  H84  1  0.83063000  0.77854000  0.52692000  1.0
  H  H85  1  0.77914000  0.83039000  0.48111000  1.0
  H  H86  1  0.72087000  0.66963000  0.48111000  1.0
  H  H87  1  0.66938000  0.72148000  0.52692000  1.0
  H  H88  1  0.10501000  0.28580000  0.52518000  1.0
  H  H89  1  0.21505000  0.39496000  0.48144000  1.0
  H  H90  1  0.39500000  0.21422000  0.52518000  1.0
  H  H91  1  0.28496000  0.10506000  0.48144000  1.0
  H  H92  1  0.27914000  0.33039000  0.48111000  1.0
  H  H93  1  0.33063000  0.27854000  0.52692000  1.0
  H  H94  1  0.16938000  0.22148000  0.52692000  1.0
  H  H95  1  0.22087000  0.16963000  0.48111000  1.0
  H  H96  1  0.10504000  0.78491000  0.98161000  1.0
  H  H97  1  0.21422000  0.89501000  0.02518000  1.0
  H  H98  1  0.39497000  0.71510000  0.98161000  1.0
  H  H99  1  0.28579000  0.60501000  0.02518000  1.0
  H  H100  1  0.27854000  0.83065000  0.02695000  1.0
  H  H101  1  0.33039000  0.77918000  0.98128000  1.0
  H  H102  1  0.16962000  0.72084000  0.98128000  1.0
  H  H103  1  0.22147000  0.66936000  0.02695000  1.0
  H  H104  1  0.01833000  0.10500000  0.21494000  1.0
  H  H105  1  0.97555000  0.21453000  0.10488000  1.0
  H  H106  1  0.01940000  0.39479000  0.28526000  1.0
  H  H107  1  0.97456000  0.28571000  0.39494000  1.0
  H  H108  1  0.97394000  0.27878000  0.16933000  1.0
  H  H109  1  0.01981000  0.33029000  0.22110000  1.0
  H  H110  1  0.01878000  0.16949000  0.27911000  1.0
  H  H111  1  0.97292000  0.22145000  0.33048000  1.0
  H  H112  1  0.47535000  0.28551000  0.89515000  1.0
  H  H113  1  0.51771000  0.39505000  0.78495000  1.0
  H  H114  1  0.47434000  0.21428000  0.60499000  1.0
  H  H115  1  0.51881000  0.10519000  0.71481000  1.0
  H  H116  1  0.51808000  0.33056000  0.72081000  1.0
  H  H117  1  0.47253000  0.27854000  0.66944000  1.0
  H  H118  1  0.47357000  0.22126000  0.83072000  1.0
  H  H119  1  0.51912000  0.16969000  0.77895000  1.0
  H  H120  1  0.97535000  0.78551000  0.89515000  1.0
  H  H121  1  0.01771000  0.89505000  0.78495000  1.0
  H  H122  1  0.97434000  0.71428000  0.60499000  1.0
  H  H123  1  0.01881000  0.60519000  0.71481000  1.0
  H  H124  1  0.01807000  0.83056000  0.72081000  1.0
  H  H125  1  0.97253000  0.77854000  0.66944000  1.0
  H  H126  1  0.97357000  0.72126000  0.83072000  1.0
  H  H127  1  0.01912000  0.66969000  0.77895000  1.0
  H  H128  1  0.51833000  0.60500000  0.21494000  1.0
  H  H129  1  0.47555000  0.71453000  0.10488000  1.0
  H  H130  1  0.51940000  0.89479000  0.28526000  1.0
  H  H131  1  0.47456000  0.78571000  0.39494000  1.0
  H  H132  1  0.47394000  0.77878000  0.16933000  1.0
  H  H133  1  0.51981000  0.83029000  0.22110000  1.0
  H  H134  1  0.51878000  0.66949000  0.27911000  1.0
  H  H135  1  0.47292000  0.72145000  0.33048000  1.0
  H  H136  1  0.02446000  0.78549000  0.10488000  1.0
  H  H137  1  0.98168000  0.89501000  0.21494000  1.0
  H  H138  1  0.02545000  0.71431000  0.39494000  1.0
  H  H139  1  0.98061000  0.60523000  0.28526000  1.0
  H  H140  1  0.98123000  0.83053000  0.27911000  1.0
  H  H141  1  0.02709000  0.77856000  0.33048000  1.0
  H  H142  1  0.02607000  0.72124000  0.16933000  1.0
  H  H143  1  0.98020000  0.66972000  0.22110000  1.0
  H  H144  1  0.48230000  0.60497000  0.78495000  1.0
  H  H145  1  0.52466000  0.71451000  0.89515000  1.0
  H  H146  1  0.48120000  0.89482000  0.71481000  1.0
  H  H147  1  0.52567000  0.78573000  0.60499000  1.0
  H  H148  1  0.52644000  0.77876000  0.83072000  1.0
  H  H149  1  0.48089000  0.83033000  0.77895000  1.0
  H  H150  1  0.48193000  0.66945000  0.72081000  1.0
  H  H151  1  0.52748000  0.72148000  0.66944000  1.0
  H  H152  1  0.52446000  0.28549000  0.10488000  1.0
  H  H153  1  0.48168000  0.39501000  0.21494000  1.0
  H  H154  1  0.52545000  0.21431000  0.39494000  1.0
  H  H155  1  0.48061000  0.10523000  0.28526000  1.0
  H  H156  1  0.48123000  0.33053000  0.27911000  1.0
  H  H157  1  0.52709000  0.27856000  0.33048000  1.0
  H  H158  1  0.52607000  0.22124000  0.16933000  1.0
  H  H159  1  0.48020000  0.16972000  0.22110000  1.0
  H  H160  1  0.98230000  0.10497000  0.78495000  1.0
  H  H161  1  0.02466000  0.21451000  0.89515000  1.0
  H  H162  1  0.98120000  0.39482000  0.71481000  1.0
  H  H163  1  0.02567000  0.28573000  0.60499000  1.0
  H  H164  1  0.02644000  0.27876000  0.83072000  1.0
  H  H165  1  0.98089000  0.33033000  0.77895000  1.0
  H  H166  1  0.98193000  0.16945000  0.72081000  1.0
  H  H167  1  0.02748000  0.22148000  0.66944000  1.0
  H  H168  1  0.21426000  0.97421000  0.10505000  1.0
  H  H169  1  0.10523000  0.01911000  0.21475000  1.0
  H  H170  1  0.28553000  0.97519000  0.39508000  1.0
  H  H171  1  0.39501000  0.01804000  0.28500000  1.0
  H  H172  1  0.16974000  0.01948000  0.27890000  1.0
  H  H173  1  0.22127000  0.97355000  0.33064000  1.0
  H  H174  1  0.27853000  0.97254000  0.16950000  1.0
  H  H175  1  0.33051000  0.01846000  0.22085000  1.0
  H  H176  1  0.39519000  0.47599000  0.78545000  1.0
  H  H177  1  0.28491000  0.51791000  0.89508000  1.0
  H  H178  1  0.10508000  0.47446000  0.71422000  1.0
  H  H179  1  0.21475000  0.51940000  0.60517000  1.0
  H  H180  1  0.22078000  0.51837000  0.83058000  1.0
  H  H181  1  0.16952000  0.47282000  0.77847000  1.0
  H  H182  1  0.33078000  0.47431000  0.72118000  1.0
  H  H183  1  0.27888000  0.51987000  0.66969000  1.0
  H  H184  1  0.89519000  0.97599000  0.78545000  1.0
  H  H185  1  0.78491000  0.01791000  0.89508000  1.0
  H  H186  1  0.60508000  0.97446000  0.71422000  1.0
  H  H187  1  0.71475000  0.01940000  0.60517000  1.0
  H  H188  1  0.72078000  0.01837000  0.83058000  1.0
  H  H189  1  0.66952000  0.97282000  0.77847000  1.0
  H  H190  1  0.83078000  0.97431000  0.72118000  1.0
  H  H191  1  0.77888000  0.01987000  0.66969000  1.0
  H  H192  1  0.71426000  0.47421000  0.10505000  1.0
  H  H193  1  0.60523000  0.51911000  0.21475000  1.0
  H  H194  1  0.78553000  0.47519000  0.39508000  1.0
  H  H195  1  0.89501000  0.51804000  0.28500000  1.0
  H  H196  1  0.66974000  0.51948000  0.27890000  1.0
  H  H197  1  0.72127000  0.47355000  0.33064000  1.0
  H  H198  1  0.77853000  0.47254000  0.16950000  1.0
  H  H199  1  0.83051000  0.51846000  0.22085000  1.0
  H  H200  1  0.10482000  0.02403000  0.78545000  1.0
  H  H201  1  0.21510000  0.98210000  0.89508000  1.0
  H  H202  1  0.39493000  0.02556000  0.71422000  1.0
  H  H203  1  0.28526000  0.98062000  0.60517000  1.0
  H  H204  1  0.27923000  0.98165000  0.83058000  1.0
  H  H205  1  0.33049000  0.02720000  0.77847000  1.0
  H  H206  1  0.16923000  0.02571000  0.72118000  1.0
  H  H207  1  0.22113000  0.98014000  0.66969000  1.0
  H  H208  1  0.28575000  0.52581000  0.10505000  1.0
  H  H209  1  0.39478000  0.48091000  0.21475000  1.0
  H  H210  1  0.21448000  0.52483000  0.39508000  1.0
  H  H211  1  0.10500000  0.48197000  0.28500000  1.0
  H  H212  1  0.33027000  0.48054000  0.27890000  1.0
  H  H213  1  0.27874000  0.52646000  0.33064000  1.0
  H  H214  1  0.22147000  0.52747000  0.16950000  1.0
  H  H215  1  0.16950000  0.48156000  0.22085000  1.0
  H  H216  1  0.78575000  0.02581000  0.10505000  1.0
  H  H217  1  0.89478000  0.98091000  0.21475000  1.0
  H  H218  1  0.71448000  0.02483000  0.39508000  1.0
  H  H219  1  0.60500000  0.98197000  0.28500000  1.0
  H  H220  1  0.83027000  0.98054000  0.27890000  1.0
  H  H221  1  0.77874000  0.02646000  0.33064000  1.0
  H  H222  1  0.72147000  0.02747000  0.16950000  1.0
  H  H223  1  0.66950000  0.98156000  0.22085000  1.0
  H  H224  1  0.60482000  0.52403000  0.78545000  1.0
  H  H225  1  0.71510000  0.48210000  0.89508000  1.0
  H  H226  1  0.89493000  0.52556000  0.71422000  1.0
  H  H227  1  0.78526000  0.48062000  0.60517000  1.0
  H  H228  1  0.77923000  0.48165000  0.83058000  1.0
  H  H229  1  0.83049000  0.52720000  0.77847000  1.0
  H  H230  1  0.66923000  0.52571000  0.72118000  1.0
  H  H231  1  0.72113000  0.48014000  0.66969000  1.0
  C  C232  1  0.88554000  0.11484000  0.00225000  1.0
  C  C233  1  0.11471000  0.11455000  0.99785000  1.0
  C  C234  1  0.99782000  0.11460000  0.11467000  1.0
  C  C235  1  0.00240000  0.11457000  0.88531000  1.0
  C  C236  1  0.11447000  0.88518000  0.00225000  1.0
  C  C237  1  0.88530000  0.88547000  0.99785000  1.0
  C  C238  1  0.11461000  0.99766000  0.11468000  1.0
  C  C239  1  0.11471000  0.00209000  0.88545000  1.0
  C  C240  1  0.88530000  0.99793000  0.88545000  1.0
  C  C241  1  0.88540000  0.00235000  0.11468000  1.0
  C  C242  1  0.00219000  0.88542000  0.11467000  1.0
  C  C243  1  0.99761000  0.88544000  0.88531000  1.0
  C  C244  1  0.38554000  0.61484000  0.00225000  1.0
  C  C245  1  0.61471000  0.61455000  0.99785000  1.0
  C  C246  1  0.49782000  0.61460000  0.11467000  1.0
  C  C247  1  0.50240000  0.61457000  0.88531000  1.0
  C  C248  1  0.61447000  0.38518000  0.00225000  1.0
  C  C249  1  0.38530000  0.38547000  0.99785000  1.0
  C  C250  1  0.61461000  0.49766000  0.11468000  1.0
  C  C251  1  0.61471000  0.50209000  0.88545000  1.0
  C  C252  1  0.38530000  0.49793000  0.88545000  1.0
  C  C253  1  0.38540000  0.50235000  0.11468000  1.0
  C  C254  1  0.50219000  0.38542000  0.11467000  1.0
  C  C255  1  0.49761000  0.38544000  0.88531000  1.0
  C  C256  1  0.88522000  0.61447000  0.50219000  1.0
  C  C257  1  0.11455000  0.61476000  0.49779000  1.0
  C  C258  1  0.99773000  0.61460000  0.61466000  1.0
  C  C259  1  0.00208000  0.61463000  0.38533000  1.0
  C  C260  1  0.11479000  0.38555000  0.50219000  1.0
  C  C261  1  0.88546000  0.38526000  0.49779000  1.0
  C  C262  1  0.11469000  0.49782000  0.61453000  1.0
  C  C263  1  0.11457000  0.50247000  0.38528000  1.0
  C  C264  1  0.88544000  0.49755000  0.38528000  1.0
  C  C265  1  0.88532000  0.50220000  0.61453000  1.0
  C  C266  1  0.00228000  0.38542000  0.61466000  1.0
  C  C267  1  0.99793000  0.38539000  0.38533000  1.0
  C  C268  1  0.38522000  0.11447000  0.50219000  1.0
  C  C269  1  0.61455000  0.11476000  0.49779000  1.0
  C  C270  1  0.49773000  0.11460000  0.61466000  1.0
  C  C271  1  0.50208000  0.11463000  0.38533000  1.0
  C  C272  1  0.61479000  0.88555000  0.50219000  1.0
  C  C273  1  0.38546000  0.88526000  0.49779000  1.0
  C  C274  1  0.61469000  0.99782000  0.61453000  1.0
  C  C275  1  0.61457000  0.00247000  0.38528000  1.0
  C  C276  1  0.38544000  0.99755000  0.38528000  1.0
  C  C277  1  0.38532000  0.00220000  0.61453000  1.0
  C  C278  1  0.50228000  0.88542000  0.61466000  1.0
  C  C279  1  0.49793000  0.88539000  0.38533000  1.0
  C  C280  1  0.23001000  0.23004000  0.99610000  1.0
  C  C281  1  0.18004000  0.24141000  0.00838000  1.0
  C  C282  1  0.14288000  0.20428000  0.00851000  1.0
  C  C283  1  0.15434000  0.15427000  0.99693000  1.0
  C  C284  1  0.20418000  0.14274000  0.98474000  1.0
  C  C285  1  0.24127000  0.17997000  0.98406000  1.0
  C  C286  1  0.27000000  0.26997000  0.99610000  1.0
  C  C287  1  0.31997000  0.25861000  0.00838000  1.0
  C  C288  1  0.35713000  0.29573000  0.00851000  1.0
  C  C289  1  0.34567000  0.34575000  0.99693000  1.0
  C  C290  1  0.29583000  0.35727000  0.98474000  1.0
  C  C291  1  0.25874000  0.32005000  0.98406000  1.0
  C  C292  1  0.23004000  0.73002000  0.49602000  1.0
  C  C293  1  0.18000000  0.74127000  0.48386000  1.0
  C  C294  1  0.14277000  0.70419000  0.48453000  1.0
  C  C295  1  0.15427000  0.65437000  0.49687000  1.0
  C  C296  1  0.20425000  0.64293000  0.50859000  1.0
  C  C297  1  0.24138000  0.68008000  0.50844000  1.0
  C  C298  1  0.26997000  0.76999000  0.49602000  1.0
  C  C299  1  0.32001000  0.75875000  0.48386000  1.0
  C  C300  1  0.35724000  0.79583000  0.48453000  1.0
  C  C301  1  0.34574000  0.84564000  0.49687000  1.0
  C  C302  1  0.29576000  0.85709000  0.50859000  1.0
  C  C303  1  0.25863000  0.81993000  0.50844000  1.0
  C  C304  1  0.77000000  0.76997000  0.99610000  1.0
  C  C305  1  0.75874000  0.82005000  0.98406000  1.0
  C  C306  1  0.79583000  0.85727000  0.98474000  1.0
  C  C307  1  0.84567000  0.84575000  0.99693000  1.0
  C  C308  1  0.85713000  0.79573000  0.00851000  1.0
  C  C309  1  0.81997000  0.75861000  0.00838000  1.0
  C  C310  1  0.73001000  0.73004000  0.99610000  1.0
  C  C311  1  0.74127000  0.67997000  0.98406000  1.0
  C  C312  1  0.70418000  0.64274000  0.98474000  1.0
  C  C313  1  0.65434000  0.65427000  0.99693000  1.0
  C  C314  1  0.64288000  0.70428000  0.00851000  1.0
  C  C315  1  0.68004000  0.74141000  0.00838000  1.0
  C  C316  1  0.76997000  0.26999000  0.49602000  1.0
  C  C317  1  0.75863000  0.31993000  0.50844000  1.0
  C  C318  1  0.79576000  0.35709000  0.50859000  1.0
  C  C319  1  0.84574000  0.34564000  0.49687000  1.0
  C  C320  1  0.85724000  0.29583000  0.48453000  1.0
  C  C321  1  0.82001000  0.25875000  0.48386000  1.0
  C  C322  1  0.73004000  0.23002000  0.49602000  1.0
  C  C323  1  0.74138000  0.18008000  0.50844000  1.0
  C  C324  1  0.70425000  0.14293000  0.50859000  1.0
  C  C325  1  0.65427000  0.15438000  0.49687000  1.0
  C  C326  1  0.64277000  0.20419000  0.48453000  1.0
  C  C327  1  0.68000000  0.24127000  0.48386000  1.0
  C  C328  1  0.77005000  0.23011000  0.00412000  1.0
  C  C329  1  0.75893000  0.18003000  0.01622000  1.0
  C  C330  1  0.79610000  0.14290000  0.01554000  1.0
  C  C331  1  0.84590000  0.15453000  0.00327000  1.0
  C  C332  1  0.85725000  0.20455000  0.99163000  1.0
  C  C333  1  0.81999000  0.24159000  0.99178000  1.0
  C  C334  1  0.72996000  0.26991000  0.00412000  1.0
  C  C335  1  0.74108000  0.31999000  0.01622000  1.0
  C  C336  1  0.70391000  0.35711000  0.01554000  1.0
  C  C337  1  0.65411000  0.34548000  0.00327000  1.0
  C  C338  1  0.64276000  0.29546000  0.99163000  1.0
  C  C339  1  0.68002000  0.25843000  0.99178000  1.0
  C  C340  1  0.76991000  0.72996000  0.50402000  1.0
  C  C341  1  0.75845000  0.68003000  0.49164000  1.0
  C  C342  1  0.79550000  0.64277000  0.49150000  1.0
  C  C343  1  0.84551000  0.65411000  0.50319000  1.0
  C  C344  1  0.85712000  0.70391000  0.51550000  1.0
  C  C345  1  0.81998000  0.74109000  0.51616000  1.0
  C  C346  1  0.73010000  0.77005000  0.50402000  1.0
  C  C347  1  0.74156000  0.81998000  0.49164000  1.0
  C  C348  1  0.70451000  0.85724000  0.49150000  1.0
  C  C349  1  0.65450000  0.84591000  0.50319000  1.0
  C  C350  1  0.64289000  0.79610000  0.51550000  1.0
  C  C351  1  0.68003000  0.75893000  0.51616000  1.0
  C  C352  1  0.23010000  0.27005000  0.50402000  1.0
  C  C353  1  0.18003000  0.25893000  0.51616000  1.0
  C  C354  1  0.14289000  0.29610000  0.51550000  1.0
  C  C355  1  0.15450000  0.34591000  0.50319000  1.0
  C  C356  1  0.20451000  0.35724000  0.49150000  1.0
  C  C357  1  0.24156000  0.31998000  0.49164000  1.0
  C  C358  1  0.26991000  0.22996000  0.50402000  1.0
  C  C359  1  0.31998000  0.24109000  0.51616000  1.0
  C  C360  1  0.35712000  0.20391000  0.51550000  1.0
  C  C361  1  0.34551000  0.15411000  0.50319000  1.0
  C  C362  1  0.29550000  0.14277000  0.49150000  1.0
  C  C363  1  0.25845000  0.18003000  0.49164000  1.0
  C  C364  1  0.22996000  0.76991000  0.00412000  1.0
  C  C365  1  0.18002000  0.75843000  0.99178000  1.0
  C  C366  1  0.14276000  0.79546000  0.99163000  1.0
  C  C367  1  0.15411000  0.84548000  0.00327000  1.0
  C  C368  1  0.20391000  0.85711000  0.01554000  1.0
  C  C369  1  0.24108000  0.81999000  0.01622000  1.0
  C  C370  1  0.27005000  0.73011000  0.00412000  1.0
  C  C371  1  0.31999000  0.74159000  0.99178000  1.0
  C  C372  1  0.35725000  0.70455000  0.99163000  1.0
  C  C373  1  0.34590000  0.65453000  0.00327000  1.0
  C  C374  1  0.29610000  0.64290000  0.01554000  1.0
  C  C375  1  0.25893000  0.68003000  0.01622000  1.0
  C  C376  1  0.99633000  0.22999000  0.23007000  1.0
  C  C377  1  0.00842000  0.17999000  0.24150000  1.0
  C  C378  1  0.00849000  0.14278000  0.20442000  1.0
  C  C379  1  0.99698000  0.15424000  0.15438000  1.0
  C  C380  1  0.98502000  0.20413000  0.14279000  1.0
  C  C381  1  0.98444000  0.24125000  0.17997000  1.0
  C  C382  1  0.99635000  0.27001000  0.26995000  1.0
  C  C383  1  0.00902000  0.31990000  0.25861000  1.0
  C  C384  1  0.00910000  0.35711000  0.29570000  1.0
  C  C385  1  0.99706000  0.34576000  0.34562000  1.0
  C  C386  1  0.98450000  0.29600000  0.35712000  1.0
  C  C387  1  0.98389000  0.25887000  0.31994000  1.0
  C  C388  1  0.49581000  0.27004000  0.76991000  1.0
  C  C389  1  0.48403000  0.25879000  0.82004000  1.0
  C  C390  1  0.48471000  0.29592000  0.85722000  1.0
  C  C391  1  0.49663000  0.34581000  0.84559000  1.0
  C  C392  1  0.50796000  0.35726000  0.79552000  1.0
  C  C393  1  0.50782000  0.32005000  0.75844000  1.0
  C  C394  1  0.49582000  0.22999000  0.73004000  1.0
  C  C395  1  0.48347000  0.24112000  0.68002000  1.0
  C  C396  1  0.48418000  0.20399000  0.64284000  1.0
  C  C397  1  0.49671000  0.15423000  0.65437000  1.0
  C  C398  1  0.50858000  0.14288000  0.70434000  1.0
  C  C399  1  0.50842000  0.18010000  0.74141000  1.0
  C  C400  1  0.99581000  0.77004000  0.76991000  1.0
  C  C401  1  0.98403000  0.75879000  0.82004000  1.0
  C  C402  1  0.98471000  0.79592000  0.85722000  1.0
  C  C403  1  0.99663000  0.84581000  0.84559000  1.0
  C  C404  1  0.00796000  0.85726000  0.79552000  1.0
  C  C405  1  0.00782000  0.82005000  0.75844000  1.0
  C  C406  1  0.99582000  0.72999000  0.73004000  1.0
  C  C407  1  0.98347000  0.74112000  0.68002000  1.0
  C  C408  1  0.98418000  0.70399000  0.64284000  1.0
  C  C409  1  0.99671000  0.65423000  0.65437000  1.0
  C  C410  1  0.00858000  0.64288000  0.70434000  1.0
  C  C411  1  0.00842000  0.68010000  0.74141000  1.0
  C  C412  1  0.49633000  0.72999000  0.23007000  1.0
  C  C413  1  0.50842000  0.67999000  0.24150000  1.0
  C  C414  1  0.50849000  0.64278000  0.20442000  1.0
  C  C415  1  0.49698000  0.65424000  0.15438000  1.0
  C  C416  1  0.48502000  0.70413000  0.14279000  1.0
  C  C417  1  0.48444000  0.74125000  0.17997000  1.0
  C  C418  1  0.49635000  0.77001000  0.26995000  1.0
  C  C419  1  0.50902000  0.81990000  0.25861000  1.0
  C  C420  1  0.50910000  0.85711000  0.29570000  1.0
  C  C421  1  0.49706000  0.84576000  0.34562000  1.0
  C  C422  1  0.48450000  0.79600000  0.35712000  1.0
  C  C423  1  0.48389000  0.75887000  0.31994000  1.0
  C  C424  1  0.00367000  0.77002000  0.23007000  1.0
  C  C425  1  0.01557000  0.75876000  0.17997000  1.0
  C  C426  1  0.01499000  0.79589000  0.14279000  1.0
  C  C427  1  0.00303000  0.84578000  0.15438000  1.0
  C  C428  1  0.99152000  0.85723000  0.20442000  1.0
  C  C429  1  0.99158000  0.82003000  0.24150000  1.0
  C  C430  1  0.00366000  0.73000000  0.26995000  1.0
  C  C431  1  0.01612000  0.74114000  0.31994000  1.0
  C  C432  1  0.01551000  0.70402000  0.35712000  1.0
  C  C433  1  0.00295000  0.65426000  0.34562000  1.0
  C  C434  1  0.99090000  0.64291000  0.29570000  1.0
  C  C435  1  0.99099000  0.68012000  0.25861000  1.0
  C  C436  1  0.50420000  0.72998000  0.76991000  1.0
  C  C437  1  0.49219000  0.67997000  0.75844000  1.0
  C  C438  1  0.49205000  0.64275000  0.79552000  1.0
  C  C439  1  0.50338000  0.65421000  0.84559000  1.0
  C  C440  1  0.51530000  0.70410000  0.85722000  1.0
  C  C441  1  0.51597000  0.74123000  0.82004000  1.0
  C  C442  1  0.50419000  0.77002000  0.73004000  1.0
  C  C443  1  0.49159000  0.81992000  0.74141000  1.0
  C  C444  1  0.49143000  0.85713000  0.70434000  1.0
  C  C445  1  0.50330000  0.84579000  0.65437000  1.0
  C  C446  1  0.51583000  0.79603000  0.64284000  1.0
  C  C447  1  0.51654000  0.75890000  0.68002000  1.0
  C  C448  1  0.50367000  0.27002000  0.23007000  1.0
  C  C449  1  0.51557000  0.25876000  0.17997000  1.0
  C  C450  1  0.51499000  0.29589000  0.14279000  1.0
  C  C451  1  0.50303000  0.34578000  0.15438000  1.0
  C  C452  1  0.49152000  0.35723000  0.20442000  1.0
  C  C453  1  0.49158000  0.32003000  0.24150000  1.0
  C  C454  1  0.50366000  0.23000000  0.26995000  1.0
  C  C455  1  0.51612000  0.24114000  0.31994000  1.0
  C  C456  1  0.51551000  0.20402000  0.35712000  1.0
  C  C457  1  0.50295000  0.15426000  0.34562000  1.0
  C  C458  1  0.49090000  0.14291000  0.29570000  1.0
  C  C459  1  0.49099000  0.18012000  0.25861000  1.0
  C  C460  1  0.00420000  0.22998000  0.76991000  1.0
  C  C461  1  0.99219000  0.17997000  0.75844000  1.0
  C  C462  1  0.99205000  0.14275000  0.79552000  1.0
  C  C463  1  0.00338000  0.15421000  0.84559000  1.0
  C  C464  1  0.01530000  0.20410000  0.85722000  1.0
  C  C465  1  0.01597000  0.24123000  0.82004000  1.0
  C  C466  1  0.00419000  0.27002000  0.73004000  1.0
  C  C467  1  0.99159000  0.31992000  0.74141000  1.0
  C  C468  1  0.99143000  0.35713000  0.70434000  1.0
  C  C469  1  0.00330000  0.34579000  0.65437000  1.0
  C  C470  1  0.01583000  0.29603000  0.64284000  1.0
  C  C471  1  0.01654000  0.25890000  0.68002000  1.0
  C  C472  1  0.23000000  0.99599000  0.23004000  1.0
  C  C473  1  0.24112000  0.98353000  0.18005000  1.0
  C  C474  1  0.20399000  0.98415000  0.14288000  1.0
  C  C475  1  0.15423000  0.99674000  0.15438000  1.0
  C  C476  1  0.14290000  0.00879000  0.20431000  1.0
  C  C477  1  0.18012000  0.00868000  0.24139000  1.0
  C  C478  1  0.27003000  0.99598000  0.26990000  1.0
  C  C479  1  0.25879000  0.98407000  0.32000000  1.0
  C  C480  1  0.29592000  0.98467000  0.35717000  1.0
  C  C481  1  0.34580000  0.99666000  0.34557000  1.0
  C  C482  1  0.35724000  0.00818000  0.29553000  1.0
  C  C483  1  0.32002000  0.00810000  0.25845000  1.0
  C  C484  1  0.26993000  0.49632000  0.77000000  1.0
  C  C485  1  0.32008000  0.48466000  0.75873000  1.0
  C  C486  1  0.35724000  0.48527000  0.79587000  1.0
  C  C487  1  0.34559000  0.49704000  0.84580000  1.0
  C  C488  1  0.29550000  0.50828000  0.85727000  1.0
  C  C489  1  0.25843000  0.50820000  0.82004000  1.0
  C  C490  1  0.23006000  0.49632000  0.72996000  1.0
  C  C491  1  0.18007000  0.48382000  0.74107000  1.0
  C  C492  1  0.14290000  0.48441000  0.70393000  1.0
  C  C493  1  0.15439000  0.49697000  0.65417000  1.0
  C  C494  1  0.20431000  0.50908000  0.64285000  1.0
  C  C495  1  0.24138000  0.50903000  0.68008000  1.0
  C  C496  1  0.76993000  0.99632000  0.77000000  1.0
  C  C497  1  0.82008000  0.98466000  0.75873000  1.0
  C  C498  1  0.85724000  0.98527000  0.79587000  1.0
  C  C499  1  0.84559000  0.99704000  0.84580000  1.0
  C  C500  1  0.79550000  0.00828000  0.85727000  1.0
  C  C501  1  0.75843000  0.00820000  0.82004000  1.0
  C  C502  1  0.73006000  0.99632000  0.72996000  1.0
  C  C503  1  0.68007000  0.98382000  0.74107000  1.0
  C  C504  1  0.64290000  0.98441000  0.70393000  1.0
  C  C505  1  0.65439000  0.99697000  0.65417000  1.0
  C  C506  1  0.70431000  0.00908000  0.64285000  1.0
  C  C507  1  0.74138000  0.00903000  0.68008000  1.0
  C  C508  1  0.73000000  0.49599000  0.23004000  1.0
  C  C509  1  0.74112000  0.48353000  0.18005000  1.0
  C  C510  1  0.70399000  0.48415000  0.14288000  1.0
  C  C511  1  0.65423000  0.49674000  0.15438000  1.0
  C  C512  1  0.64290000  0.50879000  0.20431000  1.0
  C  C513  1  0.68012000  0.50868000  0.24139000  1.0
  C  C514  1  0.77003000  0.49598000  0.26990000  1.0
  C  C515  1  0.75879000  0.48407000  0.32000000  1.0
  C  C516  1  0.79592000  0.48467000  0.35717000  1.0
  C  C517  1  0.84580000  0.49666000  0.34557000  1.0
  C  C518  1  0.85724000  0.50818000  0.29553000  1.0
  C  C519  1  0.82002000  0.50810000  0.25845000  1.0
  C  C520  1  0.23008000  0.00369000  0.77000000  1.0
  C  C521  1  0.17993000  0.01536000  0.75873000  1.0
  C  C522  1  0.14277000  0.01475000  0.79587000  1.0
  C  C523  1  0.15442000  0.00298000  0.84580000  1.0
  C  C524  1  0.20451000  0.99174000  0.85727000  1.0
  C  C525  1  0.24158000  0.99182000  0.82004000  1.0
  C  C526  1  0.26995000  0.00370000  0.72996000  1.0
  C  C527  1  0.31994000  0.01620000  0.74107000  1.0
  C  C528  1  0.35711000  0.01561000  0.70393000  1.0
  C  C529  1  0.34562000  0.00305000  0.65417000  1.0
  C  C530  1  0.29570000  0.99094000  0.64285000  1.0
  C  C531  1  0.25863000  0.99099000  0.68008000  1.0
  C  C532  1  0.27001000  0.50402000  0.23004000  1.0
  C  C533  1  0.25889000  0.51649000  0.18005000  1.0
  C  C534  1  0.29602000  0.51587000  0.14288000  1.0
  C  C535  1  0.34578000  0.50328000  0.15438000  1.0
  C  C536  1  0.35710000  0.49123000  0.20431000  1.0
  C  C537  1  0.31989000  0.49133000  0.24139000  1.0
  C  C538  1  0.22998000  0.50404000  0.26990000  1.0
  C  C539  1  0.24122000  0.51594000  0.32000000  1.0
  C  C540  1  0.20409000  0.51535000  0.35717000  1.0
  C  C541  1  0.15421000  0.50336000  0.34557000  1.0
  C  C542  1  0.14277000  0.49184000  0.29553000  1.0
  C  C543  1  0.17999000  0.49192000  0.25845000  1.0
  C  C544  1  0.77001000  0.00402000  0.23004000  1.0
  C  C545  1  0.75889000  0.01649000  0.18005000  1.0
  C  C546  1  0.79602000  0.01587000  0.14288000  1.0
  C  C547  1  0.84578000  0.00328000  0.15438000  1.0
  C  C548  1  0.85710000  0.99123000  0.20431000  1.0
  C  C549  1  0.81989000  0.99133000  0.24139000  1.0
  C  C550  1  0.72998000  0.00404000  0.26990000  1.0
  C  C551  1  0.74122000  0.01594000  0.32000000  1.0
  C  C552  1  0.70409000  0.01535000  0.35717000  1.0
  C  C553  1  0.65421000  0.00336000  0.34557000  1.0
  C  C554  1  0.64277000  0.99184000  0.29553000  1.0
  C  C555  1  0.67999000  0.99192000  0.25845000  1.0
  C  C556  1  0.73008000  0.50369000  0.77000000  1.0
  C  C557  1  0.67993000  0.51536000  0.75873000  1.0
  C  C558  1  0.64277000  0.51475000  0.79587000  1.0
  C  C559  1  0.65442000  0.50298000  0.84580000  1.0
  C  C560  1  0.70451000  0.49174000  0.85727000  1.0
  C  C561  1  0.74158000  0.49182000  0.82004000  1.0
  C  C562  1  0.76995000  0.50370000  0.72996000  1.0
  C  C563  1  0.81994000  0.51620000  0.74107000  1.0
  C  C564  1  0.85711000  0.51561000  0.70393000  1.0
  C  C565  1  0.84562000  0.50305000  0.65417000  1.0
  C  C566  1  0.79570000  0.49094000  0.64285000  1.0
  C  C567  1  0.75863000  0.49099000  0.68008000  1.0
  O  O568  1  0.87103000  0.06840000  0.00201000  1.0
  O  O569  1  0.12915000  0.06807000  0.99810000  1.0
  O  O570  1  0.99813000  0.12907000  0.06822000  1.0
  O  O571  1  0.00223000  0.12904000  0.93177000  1.0
  O  O572  1  0.00112000  0.06814000  0.87086000  1.0
  O  O573  1  0.99883000  0.06816000  0.12912000  1.0
  O  O574  1  0.06829000  0.12905000  0.99899000  1.0
  O  O575  1  0.93200000  0.12925000  0.00105000  1.0
  O  O576  1  0.04543000  0.04529000  0.95467000  1.0
  O  O577  1  0.95470000  0.04546000  0.04540000  1.0
  O  O578  1  0.04516000  0.04503000  0.04509000  1.0
  O  O579  1  0.95496000  0.04517000  0.95491000  1.0
  O  O580  1  0.12898000  0.93161000  0.00201000  1.0
  O  O581  1  0.87086000  0.93195000  0.99810000  1.0
  O  O582  1  0.06816000  0.99869000  0.12913000  1.0
  O  O583  1  0.06825000  0.00198000  0.87099000  1.0
  O  O584  1  0.93176000  0.99803000  0.87099000  1.0
  O  O585  1  0.93185000  0.00133000  0.12913000  1.0
  O  O586  1  0.00188000  0.87094000  0.06822000  1.0
  O  O587  1  0.99778000  0.87097000  0.93177000  1.0
  O  O588  1  0.00118000  0.93186000  0.12912000  1.0
  O  O589  1  0.99889000  0.93188000  0.87086000  1.0
  O  O590  1  0.12909000  0.99803000  0.06823000  1.0
  O  O591  1  0.87092000  0.00199000  0.06823000  1.0
  O  O592  1  0.87084000  0.99919000  0.93189000  1.0
  O  O593  1  0.12917000  0.00083000  0.93189000  1.0
  O  O594  1  0.06801000  0.87077000  0.00105000  1.0
  O  O595  1  0.93172000  0.87097000  0.99899000  1.0
  O  O596  1  0.95458000  0.95472000  0.95467000  1.0
  O  O597  1  0.04531000  0.95456000  0.04540000  1.0
  O  O598  1  0.95485000  0.95498000  0.04509000  1.0
  O  O599  1  0.04505000  0.95484000  0.95491000  1.0
  O  O600  1  0.37103000  0.56840000  0.00201000  1.0
  O  O601  1  0.62915000  0.56807000  0.99810000  1.0
  O  O602  1  0.49813000  0.62907000  0.06822000  1.0
  O  O603  1  0.50223000  0.62904000  0.93177000  1.0
  O  O604  1  0.50112000  0.56814000  0.87086000  1.0
  O  O605  1  0.49883000  0.56816000  0.12912000  1.0
  O  O606  1  0.56829000  0.62905000  0.99899000  1.0
  O  O607  1  0.43200000  0.62925000  0.00105000  1.0
  O  O608  1  0.54543000  0.54529000  0.95467000  1.0
  O  O609  1  0.45470000  0.54546000  0.04540000  1.0
  O  O610  1  0.54516000  0.54503000  0.04509000  1.0
  O  O611  1  0.45496000  0.54517000  0.95491000  1.0
  O  O612  1  0.62898000  0.43161000  0.00201000  1.0
  O  O613  1  0.37086000  0.43195000  0.99810000  1.0
  O  O614  1  0.56816000  0.49869000  0.12913000  1.0
  O  O615  1  0.56825000  0.50198000  0.87099000  1.0
  O  O616  1  0.43176000  0.49803000  0.87099000  1.0
  O  O617  1  0.43185000  0.50133000  0.12913000  1.0
  O  O618  1  0.50188000  0.37094000  0.06822000  1.0
  O  O619  1  0.49778000  0.37097000  0.93177000  1.0
  O  O620  1  0.50118000  0.43186000  0.12912000  1.0
  O  O621  1  0.49889000  0.43188000  0.87086000  1.0
  O  O622  1  0.62909000  0.49803000  0.06823000  1.0
  O  O623  1  0.37092000  0.50199000  0.06823000  1.0
  O  O624  1  0.37084000  0.49919000  0.93189000  1.0
  O  O625  1  0.62917000  0.50083000  0.93189000  1.0
  O  O626  1  0.56801000  0.37077000  0.00105000  1.0
  O  O627  1  0.43172000  0.37097000  0.99899000  1.0
  O  O628  1  0.45458000  0.45472000  0.95467000  1.0
  O  O629  1  0.54531000  0.45456000  0.04540000  1.0
  O  O630  1  0.45485000  0.45498000  0.04509000  1.0
  O  O631  1  0.54505000  0.45484000  0.95491000  1.0
  O  O632  1  0.87081000  0.56800000  0.50112000  1.0
  O  O633  1  0.12904000  0.56834000  0.49880000  1.0
  O  O634  1  0.99801000  0.62909000  0.56820000  1.0
  O  O635  1  0.00164000  0.62912000  0.43178000  1.0
  O  O636  1  0.00117000  0.56818000  0.37088000  1.0
  O  O637  1  0.99890000  0.56816000  0.62911000  1.0
  O  O638  1  0.06808000  0.62920000  0.49818000  1.0
  O  O639  1  0.93165000  0.62900000  0.50181000  1.0
  O  O640  1  0.04531000  0.54546000  0.45458000  1.0
  O  O641  1  0.95458000  0.54529000  0.54531000  1.0
  O  O642  1  0.04504000  0.54518000  0.54507000  1.0
  O  O643  1  0.95486000  0.54505000  0.45489000  1.0
  O  O644  1  0.12920000  0.43201000  0.50112000  1.0
  O  O645  1  0.87097000  0.43168000  0.49880000  1.0
  O  O646  1  0.06823000  0.49801000  0.62901000  1.0
  O  O647  1  0.06814000  0.50134000  0.37083000  1.0
  O  O648  1  0.93187000  0.49868000  0.37083000  1.0
  O  O649  1  0.93178000  0.50200000  0.62901000  1.0
  O  O650  1  0.00200000  0.37093000  0.56820000  1.0
  O  O651  1  0.99837000  0.37090000  0.43178000  1.0
  O  O652  1  0.00111000  0.43186000  0.62911000  1.0
  O  O653  1  0.99884000  0.43183000  0.37088000  1.0
  O  O654  1  0.12914000  0.49896000  0.56809000  1.0
  O  O655  1  0.87087000  0.50105000  0.56809000  1.0
  O  O656  1  0.87096000  0.49779000  0.43173000  1.0
  O  O657  1  0.12905000  0.50223000  0.43173000  1.0
  O  O658  1  0.06836000  0.37102000  0.50181000  1.0
  O  O659  1  0.93193000  0.37081000  0.49818000  1.0
  O  O660  1  0.95470000  0.45455000  0.45458000  1.0
  O  O661  1  0.04543000  0.45473000  0.54531000  1.0
  O  O662  1  0.95497000  0.45484000  0.54507000  1.0
  O  O663  1  0.04515000  0.45497000  0.45489000  1.0
  O  O664  1  0.37081000  0.06800000  0.50112000  1.0
  O  O665  1  0.62904000  0.06834000  0.49880000  1.0
  O  O666  1  0.49801000  0.12909000  0.56820000  1.0
  O  O667  1  0.50164000  0.12912000  0.43178000  1.0
  O  O668  1  0.50117000  0.06818000  0.37088000  1.0
  O  O669  1  0.49890000  0.06816000  0.62911000  1.0
  O  O670  1  0.56808000  0.12920000  0.49818000  1.0
  O  O671  1  0.43165000  0.12900000  0.50181000  1.0
  O  O672  1  0.54531000  0.04546000  0.45458000  1.0
  O  O673  1  0.45458000  0.04529000  0.54531000  1.0
  O  O674  1  0.54504000  0.04518000  0.54507000  1.0
  O  O675  1  0.45486000  0.04505000  0.45489000  1.0
  O  O676  1  0.62920000  0.93201000  0.50112000  1.0
  O  O677  1  0.37097000  0.93168000  0.49880000  1.0
  O  O678  1  0.56823000  0.99801000  0.62901000  1.0
  O  O679  1  0.56814000  0.00134000  0.37083000  1.0
  O  O680  1  0.43187000  0.99868000  0.37083000  1.0
  O  O681  1  0.43178000  0.00200000  0.62901000  1.0
  O  O682  1  0.50200000  0.87093000  0.56820000  1.0
  O  O683  1  0.49837000  0.87090000  0.43178000  1.0
  O  O684  1  0.50111000  0.93186000  0.62911000  1.0
  O  O685  1  0.49884000  0.93183000  0.37088000  1.0
  O  O686  1  0.62914000  0.99896000  0.56809000  1.0
  O  O687  1  0.37087000  0.00105000  0.56809000  1.0
  O  O688  1  0.37096000  0.99779000  0.43173000  1.0
  O  O689  1  0.62905000  0.00223000  0.43173000  1.0
  O  O690  1  0.56836000  0.87102000  0.50181000  1.0
  O  O691  1  0.43193000  0.87081000  0.49818000  1.0
  O  O692  1  0.45470000  0.95455000  0.45458000  1.0
  O  O693  1  0.54543000  0.95473000  0.54531000  1.0
  O  O694  1  0.45497000  0.95484000  0.54507000  1.0
  O  O695  1  0.54515000  0.95497000  0.45489000  1.0
