# generated using pymatgen
data_CdH8(C7O2)2
_symmetry_space_group_name_H-M   'P 1'
_cell_length_a   9.03890000
_cell_length_b   24.49800000
_cell_length_c   45.85300000
_cell_angle_alpha   90.00000000
_cell_angle_beta   90.00000000
_cell_angle_gamma   90.00000000
_symmetry_Int_Tables_number   1
_chemical_formula_structural   CdH8(C7O2)2
_chemical_formula_sum   'Cd12 H96 C168 O48'
_cell_volume   10153.45778029
_cell_formula_units_Z   12
loop_
 _symmetry_equiv_pos_site_id
 _symmetry_equiv_pos_as_xyz
  1  'x, y, z'
loop_
 _atom_site_type_symbol
 _atom_site_label
 _atom_site_symmetry_multiplicity
 _atom_site_fract_x
 _atom_site_fract_y
 _atom_site_fract_z
 _atom_site_occupancy
  Cd  Cd0  1  0.91412000  0.53713000  0.85085000  1
  Cd  Cd1  1  0.41412000  0.96287000  0.64915000  1
  Cd  Cd2  1  0.58588000  0.46287000  0.85085000  1
  Cd  Cd3  1  0.08588000  0.03713000  0.64915000  1
  Cd  Cd4  1  0.08588000  0.46287000  0.14915000  1
  Cd  Cd5  1  0.58588000  0.03713000  0.35085000  1
  Cd  Cd6  1  0.41412000  0.53713000  0.14915000  1
  Cd  Cd7  1  0.91412000  0.96287000  0.35085000  1
  Cd  Cd8  1  0.25000000  0.50000000  0.81325000  1
  Cd  Cd9  1  0.75000000  0.00000000  0.68675000  1
  Cd  Cd10  1  0.75000000  0.50000000  0.18675000  1
  Cd  Cd11  1  0.25000000  0.00000000  0.31325000  1
  H  H12  1  0.98050000  0.44540000  0.75460000  1
  H  H13  1  0.96990000  0.37480000  0.72160000  1
  H  H14  1  0.77070000  0.28340000  0.78190000  1
  H  H15  1  0.78950000  0.35210000  0.81530000  1
  H  H16  1  0.04210000  0.29090000  0.70340000  1
  H  H17  1  0.04510000  0.21310000  0.67670000  1
  H  H18  1  0.67990000  0.16110000  0.71740000  1
  H  H19  1  0.67220000  0.23970000  0.74350000  1
  H  H20  1  0.44860000  0.53420000  0.91320000  1
  H  H21  1  0.44110000  0.54090000  0.96330000  1
  H  H22  1  0.16840000  0.42510000  0.00690000  1
  H  H23  1  0.18130000  0.42810000  0.05870000  1
  H  H24  1  0.48050000  0.05460000  0.74540000  1
  H  H25  1  0.46990000  0.12520000  0.77840000  1
  H  H26  1  0.27070000  0.21660000  0.71810000  1
  H  H27  1  0.28950000  0.14790000  0.68470000  1
  H  H28  1  0.54210000  0.20910000  0.79660000  1
  H  H29  1  0.54510000  0.28690000  0.82330000  1
  H  H30  1  0.17990000  0.33890000  0.78260000  1
  H  H31  1  0.17220000  0.26030000  0.75650000  1
  H  H32  1  0.94860000  0.96580000  0.58680000  1
  H  H33  1  0.94110000  0.95910000  0.53670000  1
  H  H34  1  0.66840000  0.07490000  0.49310000  1
  H  H35  1  0.68130000  0.07190000  0.44130000  1
  H  H36  1  0.51950000  0.55460000  0.75460000  1
  H  H37  1  0.53010000  0.62520000  0.72160000  1
  H  H38  1  0.72930000  0.71660000  0.78190000  1
  H  H39  1  0.71050000  0.64790000  0.81530000  1
  H  H40  1  0.45790000  0.70910000  0.70340000  1
  H  H41  1  0.45490000  0.78690000  0.67670000  1
  H  H42  1  0.82010000  0.83890000  0.71740000  1
  H  H43  1  0.82780000  0.76030000  0.74350000  1
  H  H44  1  0.05140000  0.46580000  0.91320000  1
  H  H45  1  0.05890000  0.45910000  0.96330000  1
  H  H46  1  0.33160000  0.57490000  0.00690000  1
  H  H47  1  0.31870000  0.57190000  0.05870000  1
  H  H48  1  0.01950000  0.94540000  0.74540000  1
  H  H49  1  0.03010000  0.87480000  0.77840000  1
  H  H50  1  0.22930000  0.78340000  0.71810000  1
  H  H51  1  0.21050000  0.85210000  0.68470000  1
  H  H52  1  0.95790000  0.79090000  0.79660000  1
  H  H53  1  0.95490000  0.71310000  0.82330000  1
  H  H54  1  0.32010000  0.66110000  0.78260000  1
  H  H55  1  0.32780000  0.73970000  0.75650000  1
  H  H56  1  0.55140000  0.03420000  0.58680000  1
  H  H57  1  0.55890000  0.04090000  0.53670000  1
  H  H58  1  0.83160000  0.92510000  0.49310000  1
  H  H59  1  0.81870000  0.92810000  0.44130000  1
  H  H60  1  0.01950000  0.55460000  0.24540000  1
  H  H61  1  0.03010000  0.62520000  0.27840000  1
  H  H62  1  0.22930000  0.71660000  0.21810000  1
  H  H63  1  0.21050000  0.64790000  0.18470000  1
  H  H64  1  0.95790000  0.70910000  0.29660000  1
  H  H65  1  0.95490000  0.78690000  0.32330000  1
  H  H66  1  0.32010000  0.83890000  0.28260000  1
  H  H67  1  0.32780000  0.76030000  0.25650000  1
  H  H68  1  0.55140000  0.46580000  0.08680000  1
  H  H69  1  0.55890000  0.45910000  0.03670000  1
  H  H70  1  0.83160000  0.57490000  0.99310000  1
  H  H71  1  0.81870000  0.57190000  0.94130000  1
  H  H72  1  0.51950000  0.94540000  0.25460000  1
  H  H73  1  0.53010000  0.87480000  0.22160000  1
  H  H74  1  0.72930000  0.78340000  0.28190000  1
  H  H75  1  0.71050000  0.85210000  0.31530000  1
  H  H76  1  0.45790000  0.79090000  0.20340000  1
  H  H77  1  0.45490000  0.71310000  0.17670000  1
  H  H78  1  0.82010000  0.66110000  0.21740000  1
  H  H79  1  0.82780000  0.73970000  0.24350000  1
  H  H80  1  0.05140000  0.03420000  0.41320000  1
  H  H81  1  0.05890000  0.04090000  0.46330000  1
  H  H82  1  0.33160000  0.92510000  0.50690000  1
  H  H83  1  0.31870000  0.92810000  0.55870000  1
  H  H84  1  0.48050000  0.44540000  0.24540000  1
  H  H85  1  0.46990000  0.37480000  0.27840000  1
  H  H86  1  0.27070000  0.28340000  0.21810000  1
  H  H87  1  0.28950000  0.35210000  0.18470000  1
  H  H88  1  0.54210000  0.29090000  0.29660000  1
  H  H89  1  0.54510000  0.21310000  0.32330000  1
  H  H90  1  0.17990000  0.16110000  0.28260000  1
  H  H91  1  0.17220000  0.23970000  0.25650000  1
  H  H92  1  0.94860000  0.53420000  0.08680000  1
  H  H93  1  0.94110000  0.54090000  0.03670000  1
  H  H94  1  0.66840000  0.42510000  0.99310000  1
  H  H95  1  0.68130000  0.42810000  0.94130000  1
  H  H96  1  0.98050000  0.05460000  0.25460000  1
  H  H97  1  0.96990000  0.12520000  0.22160000  1
  H  H98  1  0.77070000  0.21660000  0.28190000  1
  H  H99  1  0.78950000  0.14790000  0.31530000  1
  H  H100  1  0.04210000  0.20910000  0.20340000  1
  H  H101  1  0.04510000  0.28690000  0.17670000  1
  H  H102  1  0.67990000  0.33890000  0.21740000  1
  H  H103  1  0.67220000  0.26030000  0.24350000  1
  H  H104  1  0.44860000  0.96580000  0.41320000  1
  H  H105  1  0.44110000  0.95910000  0.46330000  1
  H  H106  1  0.16840000  0.07490000  0.50690000  1
  H  H107  1  0.18130000  0.07190000  0.55870000  1
  C  C108  1  0.90080000  0.45103000  0.81012000  1
  C  C109  1  0.88640000  0.40775000  0.78856000  1
  C  C110  1  0.93870000  0.41240000  0.76036000  1
  C  C111  1  0.93190000  0.37033000  0.74028000  1
  C  C112  1  0.86720000  0.32138000  0.74857000  1
  C  C113  1  0.81460000  0.31617000  0.77642000  1
  C  C114  1  0.82430000  0.35741000  0.79639000  1
  C  C115  1  0.86290000  0.27385000  0.72792000  1
  C  C116  1  0.97010000  0.26450000  0.70671000  1
  C  C117  1  0.97210000  0.21785000  0.69077000  1
  C  C118  1  0.86820000  0.17735000  0.69501000  1
  C  C119  1  0.75400000  0.18705000  0.71493000  1
  C  C120  1  0.75010000  0.23372000  0.73066000  1
  C  C121  1  0.88180000  0.12185000  0.68089000  1
  C  C122  1  0.36670000  0.52118000  0.92326000  1
  C  C123  1  0.36490000  0.52350000  0.95330000  1
  C  C124  1  0.20330000  0.45620000  0.01628000  1
  C  C125  1  0.21040000  0.46000000  0.04935000  1
  C  C126  1  0.40080000  0.04897000  0.68988000  1
  C  C127  1  0.38640000  0.09225000  0.71144000  1
  C  C128  1  0.43870000  0.08760000  0.73964000  1
  C  C129  1  0.43190000  0.12967000  0.75972000  1
  C  C130  1  0.36720000  0.17862000  0.75143000  1
  C  C131  1  0.31460000  0.18383000  0.72358000  1
  C  C132  1  0.32430000  0.14259000  0.70361000  1
  C  C133  1  0.36290000  0.22615000  0.77208000  1
  C  C134  1  0.47010000  0.23550000  0.79329000  1
  C  C135  1  0.47210000  0.28215000  0.80923000  1
  C  C136  1  0.36820000  0.32265000  0.80499000  1
  C  C137  1  0.25400000  0.31295000  0.78507000  1
  C  C138  1  0.25010000  0.26628000  0.76934000  1
  C  C139  1  0.38180000  0.37815000  0.81911000  1
  C  C140  1  0.86670000  0.97882000  0.57674000  1
  C  C141  1  0.86490000  0.97650000  0.54670000  1
  C  C142  1  0.70330000  0.04380000  0.48372000  1
  C  C143  1  0.71040000  0.04000000  0.45065000  1
  C  C144  1  0.59920000  0.54897000  0.81012000  1
  C  C145  1  0.61360000  0.59225000  0.78856000  1
  C  C146  1  0.56130000  0.58760000  0.76036000  1
  C  C147  1  0.56810000  0.62967000  0.74028000  1
  C  C148  1  0.63280000  0.67862000  0.74857000  1
  C  C149  1  0.68540000  0.68383000  0.77642000  1
  C  C150  1  0.67570000  0.64259000  0.79639000  1
  C  C151  1  0.63710000  0.72615000  0.72792000  1
  C  C152  1  0.52990000  0.73550000  0.70671000  1
  C  C153  1  0.52790000  0.78215000  0.69077000  1
  C  C154  1  0.63180000  0.82265000  0.69501000  1
  C  C155  1  0.74600000  0.81295000  0.71493000  1
  C  C156  1  0.74990000  0.76628000  0.73066000  1
  C  C157  1  0.61820000  0.87815000  0.68089000  1
  C  C158  1  0.13330000  0.47882000  0.92326000  1
  C  C159  1  0.13510000  0.47650000  0.95330000  1
  C  C160  1  0.29670000  0.54380000  0.01628000  1
  C  C161  1  0.28960000  0.54000000  0.04935000  1
  C  C162  1  0.09920000  0.95103000  0.68988000  1
  C  C163  1  0.11360000  0.90775000  0.71144000  1
  C  C164  1  0.06130000  0.91240000  0.73964000  1
  C  C165  1  0.06810000  0.87033000  0.75972000  1
  C  C166  1  0.13280000  0.82138000  0.75143000  1
  C  C167  1  0.18540000  0.81617000  0.72358000  1
  C  C168  1  0.17570000  0.85741000  0.70361000  1
  C  C169  1  0.13710000  0.77385000  0.77208000  1
  C  C170  1  0.02990000  0.76450000  0.79329000  1
  C  C171  1  0.02790000  0.71785000  0.80923000  1
  C  C172  1  0.13180000  0.67735000  0.80499000  1
  C  C173  1  0.24600000  0.68705000  0.78507000  1
  C  C174  1  0.24990000  0.73372000  0.76934000  1
  C  C175  1  0.11820000  0.62185000  0.81911000  1
  C  C176  1  0.63330000  0.02118000  0.57674000  1
  C  C177  1  0.63510000  0.02350000  0.54670000  1
  C  C178  1  0.79670000  0.95620000  0.48372000  1
  C  C179  1  0.78960000  0.96000000  0.45065000  1
  C  C180  1  0.09920000  0.54897000  0.18988000  1
  C  C181  1  0.11360000  0.59225000  0.21144000  1
  C  C182  1  0.06130000  0.58760000  0.23964000  1
  C  C183  1  0.06810000  0.62967000  0.25972000  1
  C  C184  1  0.13280000  0.67862000  0.25143000  1
  C  C185  1  0.18540000  0.68383000  0.22358000  1
  C  C186  1  0.17570000  0.64259000  0.20361000  1
  C  C187  1  0.13710000  0.72615000  0.27208000  1
  C  C188  1  0.02990000  0.73550000  0.29329000  1
  C  C189  1  0.02790000  0.78215000  0.30923000  1
  C  C190  1  0.13180000  0.82265000  0.30499000  1
  C  C191  1  0.24600000  0.81295000  0.28507000  1
  C  C192  1  0.24990000  0.76628000  0.26934000  1
  C  C193  1  0.11820000  0.87815000  0.31911000  1
  C  C194  1  0.63330000  0.47882000  0.07674000  1
  C  C195  1  0.63510000  0.47650000  0.04670000  1
  C  C196  1  0.79670000  0.54380000  0.98372000  1
  C  C197  1  0.78960000  0.54000000  0.95065000  1
  C  C198  1  0.59920000  0.95103000  0.31012000  1
  C  C199  1  0.61360000  0.90775000  0.28856000  1
  C  C200  1  0.56130000  0.91240000  0.26036000  1
  C  C201  1  0.56810000  0.87033000  0.24028000  1
  C  C202  1  0.63280000  0.82138000  0.24857000  1
  C  C203  1  0.68540000  0.81617000  0.27642000  1
  C  C204  1  0.67570000  0.85741000  0.29639000  1
  C  C205  1  0.63710000  0.77385000  0.22792000  1
  C  C206  1  0.52990000  0.76450000  0.20671000  1
  C  C207  1  0.52790000  0.71785000  0.19077000  1
  C  C208  1  0.63180000  0.67735000  0.19501000  1
  C  C209  1  0.74600000  0.68705000  0.21493000  1
  C  C210  1  0.74990000  0.73372000  0.23066000  1
  C  C211  1  0.61820000  0.62185000  0.18089000  1
  C  C212  1  0.13330000  0.02118000  0.42326000  1
  C  C213  1  0.13510000  0.02350000  0.45330000  1
  C  C214  1  0.29670000  0.95620000  0.51628000  1
  C  C215  1  0.28960000  0.96000000  0.54935000  1
  C  C216  1  0.40080000  0.45103000  0.18988000  1
  C  C217  1  0.38640000  0.40775000  0.21144000  1
  C  C218  1  0.43870000  0.41240000  0.23964000  1
  C  C219  1  0.43190000  0.37033000  0.25972000  1
  C  C220  1  0.36720000  0.32138000  0.25143000  1
  C  C221  1  0.31460000  0.31617000  0.22358000  1
  C  C222  1  0.32430000  0.35741000  0.20361000  1
  C  C223  1  0.36290000  0.27385000  0.27208000  1
  C  C224  1  0.47010000  0.26450000  0.29329000  1
  C  C225  1  0.47210000  0.21785000  0.30923000  1
  C  C226  1  0.36820000  0.17735000  0.30499000  1
  C  C227  1  0.25400000  0.18705000  0.28507000  1
  C  C228  1  0.25010000  0.23372000  0.26934000  1
  C  C229  1  0.38180000  0.12185000  0.31911000  1
  C  C230  1  0.86670000  0.52118000  0.07674000  1
  C  C231  1  0.86490000  0.52350000  0.04670000  1
  C  C232  1  0.70330000  0.45620000  0.98372000  1
  C  C233  1  0.71040000  0.46000000  0.95065000  1
  C  C234  1  0.90080000  0.04897000  0.31012000  1
  C  C235  1  0.88640000  0.09225000  0.28856000  1
  C  C236  1  0.93870000  0.08760000  0.26036000  1
  C  C237  1  0.93190000  0.12967000  0.24028000  1
  C  C238  1  0.86720000  0.17862000  0.24857000  1
  C  C239  1  0.81460000  0.18383000  0.27642000  1
  C  C240  1  0.82430000  0.14259000  0.29639000  1
  C  C241  1  0.86290000  0.22615000  0.22792000  1
  C  C242  1  0.97010000  0.23550000  0.20671000  1
  C  C243  1  0.97210000  0.28215000  0.19077000  1
  C  C244  1  0.86820000  0.32265000  0.19501000  1
  C  C245  1  0.75400000  0.31295000  0.21493000  1
  C  C246  1  0.75010000  0.26628000  0.23066000  1
  C  C247  1  0.88180000  0.37815000  0.18089000  1
  C  C248  1  0.36670000  0.97882000  0.42326000  1
  C  C249  1  0.36490000  0.97650000  0.45330000  1
  C  C250  1  0.20330000  0.04380000  0.51628000  1
  C  C251  1  0.21040000  0.04000000  0.54935000  1
  C  C252  1  0.25000000  0.50000000  0.87511000  1
  C  C253  1  0.25000000  0.50000000  0.90806000  1
  C  C254  1  0.25000000  0.50000000  0.96857000  1
  C  C255  1  0.25000000  0.50000000  0.00122000  1
  C  C256  1  0.25000000  0.50000000  0.06799000  1
  C  C257  1  0.25000000  0.50000000  0.10201000  1
  C  C258  1  0.75000000  0.00000000  0.62489000  1
  C  C259  1  0.75000000  0.00000000  0.59194000  1
  C  C260  1  0.75000000  0.00000000  0.53143000  1
  C  C261  1  0.75000000  0.00000000  0.49878000  1
  C  C262  1  0.75000000  0.00000000  0.43201000  1
  C  C263  1  0.75000000  0.00000000  0.39799000  1
  C  C264  1  0.75000000  0.50000000  0.12489000  1
  C  C265  1  0.75000000  0.50000000  0.09194000  1
  C  C266  1  0.75000000  0.50000000  0.03143000  1
  C  C267  1  0.75000000  0.50000000  0.99878000  1
  C  C268  1  0.75000000  0.50000000  0.93201000  1
  C  C269  1  0.75000000  0.50000000  0.89799000  1
  C  C270  1  0.25000000  0.00000000  0.37511000  1
  C  C271  1  0.25000000  0.00000000  0.40806000  1
  C  C272  1  0.25000000  0.00000000  0.46857000  1
  C  C273  1  0.25000000  0.00000000  0.50122000  1
  C  C274  1  0.25000000  0.00000000  0.56799000  1
  C  C275  1  0.25000000  0.00000000  0.60201000  1
  O  O276  1  0.98280000  0.49269000  0.80454000  1
  O  O277  1  0.82960000  0.44856000  0.83393000  1
  O  O278  1  0.99610000  0.11371000  0.66604000  1
  O  O279  1  0.78150000  0.08948000  0.68509000  1
  O  O280  1  0.13140000  0.49131000  0.86162000  1
  O  O281  1  0.17610000  0.46000000  0.10520000  1
  O  O282  1  0.48280000  0.00731000  0.69546000  1
  O  O283  1  0.32960000  0.05144000  0.66607000  1
  O  O284  1  0.49610000  0.38629000  0.83396000  1
  O  O285  1  0.28150000  0.41052000  0.81491000  1
  O  O286  1  0.63140000  0.00869000  0.63838000  1
  O  O287  1  0.67610000  0.04000000  0.39480000  1
  O  O288  1  0.51720000  0.50731000  0.80454000  1
  O  O289  1  0.67040000  0.55144000  0.83393000  1
  O  O290  1  0.50390000  0.88629000  0.66604000  1
  O  O291  1  0.71850000  0.91052000  0.68509000  1
  O  O292  1  0.36860000  0.50869000  0.86162000  1
  O  O293  1  0.32390000  0.54000000  0.10520000  1
  O  O294  1  0.01720000  0.99269000  0.69546000  1
  O  O295  1  0.17040000  0.94856000  0.66607000  1
  O  O296  1  0.00390000  0.61371000  0.83396000  1
  O  O297  1  0.21850000  0.58948000  0.81491000  1
  O  O298  1  0.86860000  0.99131000  0.63838000  1
  O  O299  1  0.82390000  0.96000000  0.39480000  1
  O  O300  1  0.01720000  0.50731000  0.19546000  1
  O  O301  1  0.17040000  0.55144000  0.16607000  1
  O  O302  1  0.00390000  0.88629000  0.33396000  1
  O  O303  1  0.21850000  0.91052000  0.31491000  1
  O  O304  1  0.86860000  0.50869000  0.13838000  1
  O  O305  1  0.82390000  0.54000000  0.89480000  1
  O  O306  1  0.51720000  0.99269000  0.30454000  1
  O  O307  1  0.67040000  0.94856000  0.33393000  1
  O  O308  1  0.50390000  0.61371000  0.16604000  1
  O  O309  1  0.71850000  0.58948000  0.18509000  1
  O  O310  1  0.36860000  0.99131000  0.36162000  1
  O  O311  1  0.32390000  0.96000000  0.60520000  1
  O  O312  1  0.48280000  0.49269000  0.19546000  1
  O  O313  1  0.32960000  0.44856000  0.16607000  1
  O  O314  1  0.49610000  0.11371000  0.33396000  1
  O  O315  1  0.28150000  0.08948000  0.31491000  1
  O  O316  1  0.63140000  0.49131000  0.13838000  1
  O  O317  1  0.67610000  0.46000000  0.89480000  1
  O  O318  1  0.98280000  0.00731000  0.30454000  1
  O  O319  1  0.82960000  0.05144000  0.33393000  1
  O  O320  1  0.99610000  0.38629000  0.16604000  1
  O  O321  1  0.78150000  0.41052000  0.18509000  1
  O  O322  1  0.13140000  0.00869000  0.36162000  1
  O  O323  1  0.17610000  0.04000000  0.60520000  1
