# generated using pymatgen
data_Li2Fe(CO2)6
_symmetry_space_group_name_H-M   'P 1'
_cell_length_a   7.89200000
_cell_length_b   9.27200000
_cell_length_c   11.94200000
_cell_angle_alpha   104.75000000
_cell_angle_beta   101.69000000
_cell_angle_gamma   107.92000000
_symmetry_Int_Tables_number   1
_chemical_formula_structural   Li2Fe(CO2)6
_chemical_formula_sum   'Li4 Fe2 C12 O24'
_cell_volume   765.65880790
_cell_formula_units_Z   2
loop_
 _symmetry_equiv_pos_site_id
 _symmetry_equiv_pos_as_xyz
  1  'x, y, z'
loop_
 _atom_site_type_symbol
 _atom_site_label
 _atom_site_symmetry_multiplicity
 _atom_site_fract_x
 _atom_site_fract_y
 _atom_site_fract_z
 _atom_site_occupancy
  Li  Li0  1  0.43510000  0.93510000  0.60220000  1.0
  Li  Li1  1  0.47390000  0.92800000  0.10300000  1.0
  Li  Li2  1  0.56490000  0.06490000  0.39780000  1.0
  Li  Li3  1  0.52610000  0.07200000  0.89700000  1.0
  Fe  Fe4  1  0.79114000  0.58605000  0.77376000  1.0
  Fe  Fe5  1  0.20886000  0.41395000  0.22624000  1.0
  C  C6  1  0.54440000  0.27040000  0.71380000  1.0
  C  C7  1  0.70600000  0.25600000  0.66400000  1.0
  C  C8  1  0.16240000  0.80020000  0.89870000  1.0
  C  C9  1  0.09180000  0.72680000  0.99060000  1.0
  C  C10  1  0.61500000  0.80220000  0.75080000  1.0
  C  C11  1  0.62150000  0.72200000  0.62260000  1.0
  C  C12  1  0.45560000  0.72960000  0.28620000  1.0
  C  C13  1  0.29400000  0.74400000  0.33600000  1.0
  C  C14  1  0.83760000  0.19980000  0.10130000  1.0
  C  C15  1  0.90820000  0.27320000  0.00940000  1.0
  C  C16  1  0.38500000  0.19780000  0.24920000  1.0
  C  C17  1  0.37850000  0.27800000  0.37740000  1.0
  O  O18  1  0.56070000  0.41320000  0.76780000  1.0
  O  O19  1  0.84260000  0.39040000  0.69040000  1.0
  O  O20  1  0.41450000  0.14540000  0.69910000  1.0
  O  O21  1  0.69330000  0.12180000  0.60350000  1.0
  O  O22  1  0.04780000  0.74070000  0.79090000  1.0
  O  O23  1  0.92040000  0.62650000  0.94840000  1.0
  O  O24  1  0.31800000  0.90740000  0.93330000  1.0
  O  O25  1  0.19790000  0.76750000  0.09280000  1.0
  O  O26  1  0.68920000  0.75610000  0.83340000  1.0
  O  O27  1  0.70130000  0.61970000  0.61660000  1.0
  O  O28  1  0.54260000  0.90270000  0.76410000  1.0
  O  O29  1  0.55380000  0.76070000  0.53880000  1.0
  O  O30  1  0.43930000  0.58680000  0.23220000  1.0
  O  O31  1  0.15740000  0.60960000  0.30960000  1.0
  O  O32  1  0.58550000  0.85460000  0.30090000  1.0
  O  O33  1  0.30670000  0.87820000  0.39650000  1.0
  O  O34  1  0.95220000  0.25930000  0.20910000  1.0
  O  O35  1  0.07960000  0.37350000  0.05160000  1.0
  O  O36  1  0.68200000  0.09260000  0.06670000  1.0
  O  O37  1  0.80210000  0.23250000  0.90720000  1.0
  O  O38  1  0.31080000  0.24390000  0.16660000  1.0
  O  O39  1  0.29870000  0.38030000  0.38340000  1.0
  O  O40  1  0.45740000  0.09730000  0.23590000  1.0
  O  O41  1  0.44620000  0.23930000  0.46120000  1.0
