# generated using pymatgen
data_ZnH10(C2N)4
_symmetry_space_group_name_H-M   'P 1'
_cell_length_a   16.99100000
_cell_length_b   16.99100000
_cell_length_c   16.99100000
_cell_angle_alpha   90.00000000
_cell_angle_beta   90.00000000
_cell_angle_gamma   90.00000000
_symmetry_Int_Tables_number   1
_chemical_formula_structural   ZnH10(C2N)4
_chemical_formula_sum   'Zn12 H120 C96 N48'
_cell_volume   4905.20113027
_cell_formula_units_Z   12
loop_
 _symmetry_equiv_pos_site_id
 _symmetry_equiv_pos_as_xyz
  1  'x, y, z'
loop_
 _atom_site_type_symbol
 _atom_site_label
 _atom_site_symmetry_multiplicity
 _atom_site_fract_x
 _atom_site_fract_y
 _atom_site_fract_z
 _atom_site_occupancy
  Zn  Zn0  1  0.50000000  0.00000000  0.75000000  1
  Zn  Zn1  1  0.00000000  0.50000000  0.25000000  1
  Zn  Zn2  1  0.50000000  0.00000000  0.25000000  1
  Zn  Zn3  1  0.00000000  0.50000000  0.75000000  1
  Zn  Zn4  1  0.75000000  0.50000000  0.00000000  1
  Zn  Zn5  1  0.50000000  0.25000000  0.00000000  1
  Zn  Zn6  1  0.25000000  0.50000000  0.00000000  1
  Zn  Zn7  1  0.50000000  0.75000000  0.00000000  1
  Zn  Zn8  1  0.00000000  0.75000000  0.50000000  1
  Zn  Zn9  1  0.00000000  0.25000000  0.50000000  1
  Zn  Zn10  1  0.25000000  0.00000000  0.50000000  1
  Zn  Zn11  1  0.75000000  0.00000000  0.50000000  1
  H  H12  1  0.37770000  0.85890000  0.72340000  1
  H  H13  1  0.85890000  0.62230000  0.27660000  1
  H  H14  1  0.62230000  0.14110000  0.72340000  1
  H  H15  1  0.54130000  0.92020000  0.57430000  1
  H  H16  1  0.59420000  0.87720000  0.63640000  1
  H  H17  1  0.62760000  0.89610000  0.55250000  1
  H  H18  1  0.14110000  0.37770000  0.27660000  1
  H  H19  1  0.92020000  0.45870000  0.42570000  1
  H  H20  1  0.87720000  0.40580000  0.36360000  1
  H  H21  1  0.89610000  0.37240000  0.44750000  1
  H  H22  1  0.37770000  0.14110000  0.27660000  1
  H  H23  1  0.14110000  0.62230000  0.72340000  1
  H  H24  1  0.62230000  0.85890000  0.27660000  1
  H  H25  1  0.54130000  0.07980000  0.42570000  1
  H  H26  1  0.59420000  0.12280000  0.36360000  1
  H  H27  1  0.62760000  0.10390000  0.44750000  1
  H  H28  1  0.85890000  0.37770000  0.72340000  1
  H  H29  1  0.07980000  0.45870000  0.57430000  1
  H  H30  1  0.12280000  0.40580000  0.63640000  1
  H  H31  1  0.10390000  0.37240000  0.55250000  1
  H  H32  1  0.72340000  0.37770000  0.85890000  1
  H  H33  1  0.37770000  0.27660000  0.14110000  1
  H  H34  1  0.45870000  0.42570000  0.92020000  1
  H  H35  1  0.40580000  0.36360000  0.87720000  1
  H  H36  1  0.37240000  0.44750000  0.89610000  1
  H  H37  1  0.27660000  0.62230000  0.85890000  1
  H  H38  1  0.62230000  0.72340000  0.14110000  1
  H  H39  1  0.54130000  0.57430000  0.92020000  1
  H  H40  1  0.59420000  0.63640000  0.87720000  1
  H  H41  1  0.62760000  0.55250000  0.89610000  1
  H  H42  1  0.72340000  0.62230000  0.14110000  1
  H  H43  1  0.62230000  0.27660000  0.85890000  1
  H  H44  1  0.54130000  0.42570000  0.07980000  1
  H  H45  1  0.59420000  0.36360000  0.12280000  1
  H  H46  1  0.62760000  0.44750000  0.10390000  1
  H  H47  1  0.27660000  0.37770000  0.14110000  1
  H  H48  1  0.37770000  0.72340000  0.85890000  1
  H  H49  1  0.45870000  0.57430000  0.07980000  1
  H  H50  1  0.40580000  0.63640000  0.12280000  1
  H  H51  1  0.37240000  0.55250000  0.10390000  1
  H  H52  1  0.85890000  0.72340000  0.37770000  1
  H  H53  1  0.07980000  0.57430000  0.45870000  1
  H  H54  1  0.12280000  0.63640000  0.40580000  1
  H  H55  1  0.10390000  0.55250000  0.37240000  1
  H  H56  1  0.85890000  0.27660000  0.62230000  1
  H  H57  1  0.27660000  0.14110000  0.37770000  1
  H  H58  1  0.42570000  0.92020000  0.45870000  1
  H  H59  1  0.36360000  0.87720000  0.40580000  1
  H  H60  1  0.44750000  0.89610000  0.37240000  1
  H  H61  1  0.14110000  0.72340000  0.62230000  1
  H  H62  1  0.92020000  0.57430000  0.54130000  1
  H  H63  1  0.87720000  0.63640000  0.59420000  1
  H  H64  1  0.89610000  0.55250000  0.62760000  1
  H  H65  1  0.72340000  0.85890000  0.37770000  1
  H  H66  1  0.14110000  0.27660000  0.37770000  1
  H  H67  1  0.27660000  0.85890000  0.62230000  1
  H  H68  1  0.42570000  0.07980000  0.54130000  1
  H  H69  1  0.36360000  0.12280000  0.59420000  1
  H  H70  1  0.44750000  0.10390000  0.62760000  1
  H  H71  1  0.72340000  0.14110000  0.62230000  1
  H  H72  1  0.87770000  0.35890000  0.22340000  1
  H  H73  1  0.95870000  0.57980000  0.07430000  1
  H  H74  1  0.90580000  0.62280000  0.13640000  1
  H  H75  1  0.87240000  0.60390000  0.05250000  1
  H  H76  1  0.35890000  0.12230000  0.77660000  1
  H  H77  1  0.12230000  0.64110000  0.22340000  1
  H  H78  1  0.04130000  0.42020000  0.07430000  1
  H  H79  1  0.09420000  0.37720000  0.13640000  1
  H  H80  1  0.12760000  0.39610000  0.05250000  1
  H  H81  1  0.64110000  0.87770000  0.77660000  1
  H  H82  1  0.42020000  0.95870000  0.92570000  1
  H  H83  1  0.37720000  0.90580000  0.86360000  1
  H  H84  1  0.39610000  0.87240000  0.94750000  1
  H  H85  1  0.87770000  0.64110000  0.77660000  1
  H  H86  1  0.95870000  0.42020000  0.92570000  1
  H  H87  1  0.90580000  0.37720000  0.86360000  1
  H  H88  1  0.87240000  0.39610000  0.94750000  1
  H  H89  1  0.64110000  0.12230000  0.22340000  1
  H  H90  1  0.12230000  0.35890000  0.77660000  1
  H  H91  1  0.35890000  0.87770000  0.22340000  1
  H  H92  1  0.22340000  0.87770000  0.35890000  1
  H  H93  1  0.87770000  0.77660000  0.64110000  1
  H  H94  1  0.95870000  0.92570000  0.42020000  1
  H  H95  1  0.90580000  0.86360000  0.37720000  1
  H  H96  1  0.87240000  0.94750000  0.39610000  1
  H  H97  1  0.77660000  0.12230000  0.35890000  1
  H  H98  1  0.12230000  0.22340000  0.64110000  1
  H  H99  1  0.04130000  0.07430000  0.42020000  1
  H  H100  1  0.09420000  0.13640000  0.37720000  1
  H  H101  1  0.12760000  0.05250000  0.39610000  1
  H  H102  1  0.22340000  0.12230000  0.64110000  1
  H  H103  1  0.12230000  0.77660000  0.35890000  1
  H  H104  1  0.04130000  0.92570000  0.57980000  1
  H  H105  1  0.09420000  0.86360000  0.62280000  1
  H  H106  1  0.12760000  0.94750000  0.60390000  1
  H  H107  1  0.77660000  0.87770000  0.64110000  1
  H  H108  1  0.87770000  0.22340000  0.35890000  1
  H  H109  1  0.95870000  0.07430000  0.57980000  1
  H  H110  1  0.90580000  0.13640000  0.62280000  1
  H  H111  1  0.87240000  0.05250000  0.60390000  1
  H  H112  1  0.35890000  0.22340000  0.87770000  1
  H  H113  1  0.57980000  0.07430000  0.95870000  1
  H  H114  1  0.62280000  0.13640000  0.90580000  1
  H  H115  1  0.60390000  0.05250000  0.87240000  1
  H  H116  1  0.35890000  0.77660000  0.12230000  1
  H  H117  1  0.57980000  0.92570000  0.04130000  1
  H  H118  1  0.62280000  0.86360000  0.09420000  1
  H  H119  1  0.60390000  0.94750000  0.12760000  1
  H  H120  1  0.77660000  0.64110000  0.87770000  1
  H  H121  1  0.64110000  0.22340000  0.12230000  1
  H  H122  1  0.42020000  0.07430000  0.04130000  1
  H  H123  1  0.37720000  0.13640000  0.09420000  1
  H  H124  1  0.39610000  0.05250000  0.12760000  1
  H  H125  1  0.22340000  0.35890000  0.87770000  1
  H  H126  1  0.07430000  0.57980000  0.95870000  1
  H  H127  1  0.13640000  0.62280000  0.90580000  1
  H  H128  1  0.05250000  0.60390000  0.87240000  1
  H  H129  1  0.64110000  0.77660000  0.87770000  1
  H  H130  1  0.77660000  0.35890000  0.12230000  1
  H  H131  1  0.22340000  0.64110000  0.12230000  1
  C  C132  1  0.37705000  0.00790000  0.62295000  1
  C  C133  1  0.36851000  0.89914000  0.68750000  1
  C  C134  1  0.40610000  0.08550000  0.59390000  1
  C  C135  1  0.00790000  0.62295000  0.37705000  1
  C  C136  1  0.89914000  0.63149000  0.31250000  1
  C  C137  1  0.08550000  0.59390000  0.40610000  1
  C  C138  1  0.62295000  0.99210000  0.62295000  1
  C  C139  1  0.63149000  0.10086000  0.68750000  1
  C  C140  1  0.59390000  0.91450000  0.59390000  1
  C  C141  1  0.99210000  0.37705000  0.37705000  1
  C  C142  1  0.10086000  0.36851000  0.31250000  1
  C  C143  1  0.91450000  0.40610000  0.40610000  1
  C  C144  1  0.37705000  0.99210000  0.37705000  1
  C  C145  1  0.36851000  0.10086000  0.31250000  1
  C  C146  1  0.40610000  0.91450000  0.40610000  1
  C  C147  1  0.99210000  0.62295000  0.62295000  1
  C  C148  1  0.10086000  0.63149000  0.68750000  1
  C  C149  1  0.91450000  0.59390000  0.59390000  1
  C  C150  1  0.62295000  0.00790000  0.37705000  1
  C  C151  1  0.63149000  0.89914000  0.31250000  1
  C  C152  1  0.59390000  0.08550000  0.40610000  1
  C  C153  1  0.00790000  0.37705000  0.62295000  1
  C  C154  1  0.89914000  0.36851000  0.68750000  1
  C  C155  1  0.08550000  0.40610000  0.59390000  1
  C  C156  1  0.62295000  0.37705000  0.00790000  1
  C  C157  1  0.68750000  0.36851000  0.89914000  1
  C  C158  1  0.59390000  0.40610000  0.08550000  1
  C  C159  1  0.37705000  0.37705000  0.99210000  1
  C  C160  1  0.36851000  0.31250000  0.10086000  1
  C  C161  1  0.40610000  0.40610000  0.91450000  1
  C  C162  1  0.37705000  0.62295000  0.00790000  1
  C  C163  1  0.31250000  0.63149000  0.89914000  1
  C  C164  1  0.40610000  0.59390000  0.08550000  1
  C  C165  1  0.62295000  0.62295000  0.99210000  1
  C  C166  1  0.63149000  0.68750000  0.10086000  1
  C  C167  1  0.59390000  0.59390000  0.91450000  1
  C  C168  1  0.68750000  0.63149000  0.10086000  1
  C  C169  1  0.63149000  0.31250000  0.89914000  1
  C  C170  1  0.31250000  0.36851000  0.10086000  1
  C  C171  1  0.36851000  0.68750000  0.89914000  1
  C  C172  1  0.89914000  0.68750000  0.36851000  1
  C  C173  1  0.89914000  0.31250000  0.63149000  1
  C  C174  1  0.31250000  0.10086000  0.36851000  1
  C  C175  1  0.10086000  0.68750000  0.63149000  1
  C  C176  1  0.68750000  0.89914000  0.36851000  1
  C  C177  1  0.10086000  0.31250000  0.36851000  1
  C  C178  1  0.31250000  0.89914000  0.63149000  1
  C  C179  1  0.68750000  0.10086000  0.63149000  1
  C  C180  1  0.87705000  0.50790000  0.12295000  1
  C  C181  1  0.86851000  0.39914000  0.18750000  1
  C  C182  1  0.90610000  0.58550000  0.09390000  1
  C  C183  1  0.50790000  0.12295000  0.87705000  1
  C  C184  1  0.39914000  0.13149000  0.81250000  1
  C  C185  1  0.58550000  0.09390000  0.90610000  1
  C  C186  1  0.12295000  0.49210000  0.12295000  1
  C  C187  1  0.13149000  0.60086000  0.18750000  1
  C  C188  1  0.09390000  0.41450000  0.09390000  1
  C  C189  1  0.49210000  0.87705000  0.87705000  1
  C  C190  1  0.60086000  0.86851000  0.81250000  1
  C  C191  1  0.41450000  0.90610000  0.90610000  1
  C  C192  1  0.87705000  0.49210000  0.87705000  1
  C  C193  1  0.86851000  0.60086000  0.81250000  1
  C  C194  1  0.90610000  0.41450000  0.90610000  1
  C  C195  1  0.49210000  0.12295000  0.12295000  1
  C  C196  1  0.60086000  0.13149000  0.18750000  1
  C  C197  1  0.41450000  0.09390000  0.09390000  1
  C  C198  1  0.12295000  0.50790000  0.87705000  1
  C  C199  1  0.13149000  0.39914000  0.81250000  1
  C  C200  1  0.09390000  0.58550000  0.90610000  1
  C  C201  1  0.50790000  0.87705000  0.12295000  1
  C  C202  1  0.39914000  0.86851000  0.18750000  1
  C  C203  1  0.58550000  0.90610000  0.09390000  1
  C  C204  1  0.12295000  0.87705000  0.50790000  1
  C  C205  1  0.18750000  0.86851000  0.39914000  1
  C  C206  1  0.09390000  0.90610000  0.58550000  1
  C  C207  1  0.87705000  0.87705000  0.49210000  1
  C  C208  1  0.86851000  0.81250000  0.60086000  1
  C  C209  1  0.90610000  0.90610000  0.41450000  1
  C  C210  1  0.87705000  0.12295000  0.50790000  1
  C  C211  1  0.81250000  0.13149000  0.39914000  1
  C  C212  1  0.90610000  0.09390000  0.58550000  1
  C  C213  1  0.12295000  0.12295000  0.49210000  1
  C  C214  1  0.13149000  0.18750000  0.60086000  1
  C  C215  1  0.09390000  0.09390000  0.41450000  1
  C  C216  1  0.18750000  0.13149000  0.60086000  1
  C  C217  1  0.13149000  0.81250000  0.39914000  1
  C  C218  1  0.81250000  0.86851000  0.60086000  1
  C  C219  1  0.86851000  0.18750000  0.39914000  1
  C  C220  1  0.39914000  0.18750000  0.86851000  1
  C  C221  1  0.39914000  0.81250000  0.13149000  1
  C  C222  1  0.81250000  0.60086000  0.86851000  1
  C  C223  1  0.60086000  0.18750000  0.13149000  1
  C  C224  1  0.18750000  0.39914000  0.86851000  1
  C  C225  1  0.60086000  0.81250000  0.86851000  1
  C  C226  1  0.81250000  0.39914000  0.13149000  1
  C  C227  1  0.18750000  0.60086000  0.13149000  1
  N  N228  1  0.40973000  0.96832000  0.68278000  1
  N  N229  1  0.96832000  0.59027000  0.31722000  1
  N  N230  1  0.59027000  0.03168000  0.68278000  1
  N  N231  1  0.03168000  0.40973000  0.31722000  1
  N  N232  1  0.40973000  0.03168000  0.31722000  1
  N  N233  1  0.03168000  0.59027000  0.68278000  1
  N  N234  1  0.59027000  0.96832000  0.31722000  1
  N  N235  1  0.96832000  0.40973000  0.68278000  1
  N  N236  1  0.68278000  0.40973000  0.96832000  1
  N  N237  1  0.40973000  0.31722000  0.03168000  1
  N  N238  1  0.31722000  0.59027000  0.96832000  1
  N  N239  1  0.59027000  0.68278000  0.03168000  1
  N  N240  1  0.68278000  0.59027000  0.03168000  1
  N  N241  1  0.59027000  0.31722000  0.96832000  1
  N  N242  1  0.31722000  0.40973000  0.03168000  1
  N  N243  1  0.40973000  0.68278000  0.96832000  1
  N  N244  1  0.96832000  0.68278000  0.40973000  1
  N  N245  1  0.96832000  0.31722000  0.59027000  1
  N  N246  1  0.31722000  0.03168000  0.40973000  1
  N  N247  1  0.03168000  0.68278000  0.59027000  1
  N  N248  1  0.68278000  0.96832000  0.40973000  1
  N  N249  1  0.03168000  0.31722000  0.40973000  1
  N  N250  1  0.31722000  0.96832000  0.59027000  1
  N  N251  1  0.68278000  0.03168000  0.59027000  1
  N  N252  1  0.90973000  0.46832000  0.18278000  1
  N  N253  1  0.46832000  0.09027000  0.81722000  1
  N  N254  1  0.09027000  0.53168000  0.18278000  1
  N  N255  1  0.53168000  0.90973000  0.81722000  1
  N  N256  1  0.90973000  0.53168000  0.81722000  1
  N  N257  1  0.53168000  0.09027000  0.18278000  1
  N  N258  1  0.09027000  0.46832000  0.81722000  1
  N  N259  1  0.46832000  0.90973000  0.18278000  1
  N  N260  1  0.18278000  0.90973000  0.46832000  1
  N  N261  1  0.90973000  0.81722000  0.53168000  1
  N  N262  1  0.81722000  0.09027000  0.46832000  1
  N  N263  1  0.09027000  0.18278000  0.53168000  1
  N  N264  1  0.18278000  0.09027000  0.53168000  1
  N  N265  1  0.09027000  0.81722000  0.46832000  1
  N  N266  1  0.81722000  0.90973000  0.53168000  1
  N  N267  1  0.90973000  0.18278000  0.46832000  1
  N  N268  1  0.46832000  0.18278000  0.90973000  1
  N  N269  1  0.46832000  0.81722000  0.09027000  1
  N  N270  1  0.81722000  0.53168000  0.90973000  1
  N  N271  1  0.53168000  0.18278000  0.09027000  1
  N  N272  1  0.18278000  0.46832000  0.90973000  1
  N  N273  1  0.53168000  0.81722000  0.90973000  1
  N  N274  1  0.81722000  0.46832000  0.09027000  1
  N  N275  1  0.18278000  0.53168000  0.09027000  1
