# generated using pymatgen
data_FeH20(C5N)6
_symmetry_space_group_name_H-M   'P 1'
_cell_length_a   12.35800000
_cell_length_b   12.35800000
_cell_length_c   22.92880000
_cell_angle_alpha   90.00000000
_cell_angle_beta   90.00000000
_cell_angle_gamma   90.00000000
_symmetry_Int_Tables_number   1
_chemical_formula_structural   FeH20(C5N)6
_chemical_formula_sum   'Fe4 H80 C120 N24'
_cell_volume   3501.69009632
_cell_formula_units_Z   4
loop_
 _symmetry_equiv_pos_site_id
 _symmetry_equiv_pos_as_xyz
  1  'x, y, z'
loop_
 _atom_site_type_symbol
 _atom_site_label
 _atom_site_symmetry_multiplicity
 _atom_site_fract_x
 _atom_site_fract_y
 _atom_site_fract_z
 _atom_site_occupancy
  Fe  Fe0  1  0.00000000  0.00000000  0.00000000  1.0
  Fe  Fe1  1  0.50000000  0.50000000  0.50000000  1.0
  Fe  Fe2  1  0.00000000  0.00000000  0.50000000  1.0
  Fe  Fe3  1  0.50000000  0.50000000  0.00000000  1.0
  H  H4  1  0.96480000  0.15350000  0.10370000  1.0
  H  H5  1  0.96190000  0.15570000  0.20730000  1.0
  H  H6  1  0.46480000  0.65350000  0.60370000  1.0
  H  H7  1  0.46190000  0.65570000  0.70730000  1.0
  H  H8  1  0.03520000  0.84650000  0.10370000  1.0
  H  H9  1  0.03810000  0.84430000  0.20730000  1.0
  H  H10  1  0.53520000  0.34650000  0.60370000  1.0
  H  H11  1  0.53810000  0.34430000  0.70730000  1.0
  H  H12  1  0.84650000  0.96480000  0.10370000  1.0
  H  H13  1  0.84430000  0.96190000  0.20730000  1.0
  H  H14  1  0.34650000  0.46480000  0.60370000  1.0
  H  H15  1  0.34430000  0.46190000  0.70730000  1.0
  H  H16  1  0.15350000  0.03520000  0.10370000  1.0
  H  H17  1  0.15570000  0.03810000  0.20730000  1.0
  H  H18  1  0.65350000  0.53520000  0.60370000  1.0
  H  H19  1  0.65570000  0.53810000  0.70730000  1.0
  H  H20  1  0.03520000  0.15350000  0.39630000  1.0
  H  H21  1  0.03810000  0.15570000  0.29270000  1.0
  H  H22  1  0.53520000  0.65350000  0.89630000  1.0
  H  H23  1  0.53810000  0.65570000  0.79270000  1.0
  H  H24  1  0.96480000  0.84650000  0.39630000  1.0
  H  H25  1  0.96190000  0.84430000  0.29270000  1.0
  H  H26  1  0.46480000  0.34650000  0.89630000  1.0
  H  H27  1  0.46190000  0.34430000  0.79270000  1.0
  H  H28  1  0.15350000  0.96480000  0.39630000  1.0
  H  H29  1  0.15570000  0.96190000  0.29270000  1.0
  H  H30  1  0.65350000  0.46480000  0.89630000  1.0
  H  H31  1  0.65570000  0.46190000  0.79270000  1.0
  H  H32  1  0.84650000  0.03520000  0.39630000  1.0
  H  H33  1  0.84430000  0.03810000  0.29270000  1.0
  H  H34  1  0.34650000  0.53520000  0.89630000  1.0
  H  H35  1  0.34430000  0.53810000  0.79270000  1.0
  H  H36  1  0.03520000  0.84650000  0.89630000  1.0
  H  H37  1  0.03810000  0.84430000  0.79270000  1.0
  H  H38  1  0.53520000  0.34650000  0.39630000  1.0
  H  H39  1  0.53810000  0.34430000  0.29270000  1.0
  H  H40  1  0.96480000  0.15350000  0.89630000  1.0
  H  H41  1  0.96190000  0.15570000  0.79270000  1.0
  H  H42  1  0.46480000  0.65350000  0.39630000  1.0
  H  H43  1  0.46190000  0.65570000  0.29270000  1.0
  H  H44  1  0.15350000  0.03520000  0.89630000  1.0
  H  H45  1  0.15570000  0.03810000  0.79270000  1.0
  H  H46  1  0.65350000  0.53520000  0.39630000  1.0
  H  H47  1  0.65570000  0.53810000  0.29270000  1.0
  H  H48  1  0.84650000  0.96480000  0.89630000  1.0
  H  H49  1  0.84430000  0.96190000  0.79270000  1.0
  H  H50  1  0.34650000  0.46480000  0.39630000  1.0
  H  H51  1  0.34430000  0.46190000  0.29270000  1.0
  H  H52  1  0.96480000  0.84650000  0.60370000  1.0
  H  H53  1  0.96190000  0.84430000  0.70730000  1.0
  H  H54  1  0.46480000  0.34650000  0.10370000  1.0
  H  H55  1  0.46190000  0.34430000  0.20730000  1.0
  H  H56  1  0.03520000  0.15350000  0.60370000  1.0
  H  H57  1  0.03810000  0.15570000  0.70730000  1.0
  H  H58  1  0.53520000  0.65350000  0.10370000  1.0
  H  H59  1  0.53810000  0.65570000  0.20730000  1.0
  H  H60  1  0.84650000  0.03520000  0.60370000  1.0
  H  H61  1  0.84430000  0.03810000  0.70730000  1.0
  H  H62  1  0.34650000  0.53520000  0.10370000  1.0
  H  H63  1  0.34430000  0.53810000  0.20730000  1.0
  H  H64  1  0.15350000  0.96480000  0.60370000  1.0
  H  H65  1  0.15570000  0.96190000  0.70730000  1.0
  H  H66  1  0.65350000  0.46480000  0.10370000  1.0
  H  H67  1  0.65570000  0.46190000  0.20730000  1.0
  H  H68  1  0.18210000  0.54930000  0.00000000  1.0
  H  H69  1  0.68210000  0.04930000  0.50000000  1.0
  H  H70  1  0.81790000  0.45070000  0.00000000  1.0
  H  H71  1  0.31790000  0.95070000  0.50000000  1.0
  H  H72  1  0.45070000  0.18210000  0.00000000  1.0
  H  H73  1  0.95070000  0.68210000  0.50000000  1.0
  H  H74  1  0.54930000  0.81790000  0.00000000  1.0
  H  H75  1  0.04930000  0.31790000  0.50000000  1.0
  H  H76  1  0.81790000  0.54930000  0.50000000  1.0
  H  H77  1  0.31790000  0.04930000  0.00000000  1.0
  H  H78  1  0.18210000  0.45070000  0.50000000  1.0
  H  H79  1  0.68210000  0.95070000  0.00000000  1.0
  H  H80  1  0.54930000  0.18210000  0.50000000  1.0
  H  H81  1  0.04930000  0.68210000  0.00000000  1.0
  H  H82  1  0.45070000  0.81790000  0.50000000  1.0
  H  H83  1  0.95070000  0.31790000  0.00000000  1.0
  C  C84  1  0.97940000  0.08870000  0.12450000  1.0
  C  C85  1  0.97820000  0.09040000  0.18730000  1.0
  C  C86  1  0.47940000  0.58870000  0.62450000  1.0
  C  C87  1  0.47820000  0.59040000  0.68730000  1.0
  C  C88  1  0.02060000  0.91130000  0.12450000  1.0
  C  C89  1  0.02180000  0.90960000  0.18730000  1.0
  C  C90  1  0.52060000  0.41130000  0.62450000  1.0
  C  C91  1  0.52180000  0.40960000  0.68730000  1.0
  C  C92  1  0.91130000  0.97940000  0.12450000  1.0
  C  C93  1  0.90960000  0.97820000  0.18730000  1.0
  C  C94  1  0.41130000  0.47940000  0.62450000  1.0
  C  C95  1  0.40960000  0.47820000  0.68730000  1.0
  C  C96  1  0.08870000  0.02060000  0.12450000  1.0
  C  C97  1  0.09040000  0.02180000  0.18730000  1.0
  C  C98  1  0.58870000  0.52060000  0.62450000  1.0
  C  C99  1  0.59040000  0.52180000  0.68730000  1.0
  C  C100  1  0.02060000  0.08870000  0.37550000  1.0
  C  C101  1  0.02180000  0.09040000  0.31270000  1.0
  C  C102  1  0.52060000  0.58870000  0.87550000  1.0
  C  C103  1  0.52180000  0.59040000  0.81270000  1.0
  C  C104  1  0.97940000  0.91130000  0.37550000  1.0
  C  C105  1  0.97820000  0.90960000  0.31270000  1.0
  C  C106  1  0.47940000  0.41130000  0.87550000  1.0
  C  C107  1  0.47820000  0.40960000  0.81270000  1.0
  C  C108  1  0.08870000  0.97940000  0.37550000  1.0
  C  C109  1  0.09040000  0.97820000  0.31270000  1.0
  C  C110  1  0.58870000  0.47940000  0.87550000  1.0
  C  C111  1  0.59040000  0.47820000  0.81270000  1.0
  C  C112  1  0.91130000  0.02060000  0.37550000  1.0
  C  C113  1  0.90960000  0.02180000  0.31270000  1.0
  C  C114  1  0.41130000  0.52060000  0.87550000  1.0
  C  C115  1  0.40960000  0.52180000  0.81270000  1.0
  C  C116  1  0.02060000  0.91130000  0.87550000  1.0
  C  C117  1  0.02180000  0.90960000  0.81270000  1.0
  C  C118  1  0.52060000  0.41130000  0.37550000  1.0
  C  C119  1  0.52180000  0.40960000  0.31270000  1.0
  C  C120  1  0.97940000  0.08870000  0.87550000  1.0
  C  C121  1  0.97820000  0.09040000  0.81270000  1.0
  C  C122  1  0.47940000  0.58870000  0.37550000  1.0
  C  C123  1  0.47820000  0.59040000  0.31270000  1.0
  C  C124  1  0.08870000  0.02060000  0.87550000  1.0
  C  C125  1  0.09040000  0.02180000  0.81270000  1.0
  C  C126  1  0.58870000  0.52060000  0.37550000  1.0
  C  C127  1  0.59040000  0.52180000  0.31270000  1.0
  C  C128  1  0.91130000  0.97940000  0.87550000  1.0
  C  C129  1  0.90960000  0.97820000  0.81270000  1.0
  C  C130  1  0.41130000  0.47940000  0.37550000  1.0
  C  C131  1  0.40960000  0.47820000  0.31270000  1.0
  C  C132  1  0.97940000  0.91130000  0.62450000  1.0
  C  C133  1  0.97820000  0.90960000  0.68730000  1.0
  C  C134  1  0.47940000  0.41130000  0.12450000  1.0
  C  C135  1  0.47820000  0.40960000  0.18730000  1.0
  C  C136  1  0.02060000  0.08870000  0.62450000  1.0
  C  C137  1  0.02180000  0.09040000  0.68730000  1.0
  C  C138  1  0.52060000  0.58870000  0.12450000  1.0
  C  C139  1  0.52180000  0.59040000  0.18730000  1.0
  C  C140  1  0.91130000  0.02060000  0.62450000  1.0
  C  C141  1  0.90960000  0.02180000  0.68730000  1.0
  C  C142  1  0.41130000  0.52060000  0.12450000  1.0
  C  C143  1  0.40960000  0.52180000  0.18730000  1.0
  C  C144  1  0.08870000  0.97940000  0.62450000  1.0
  C  C145  1  0.09040000  0.97820000  0.68730000  1.0
  C  C146  1  0.58870000  0.47940000  0.12450000  1.0
  C  C147  1  0.59040000  0.47820000  0.18730000  1.0
  C  C148  1  0.13498000  0.22685000  0.00000000  1.0
  C  C149  1  0.10800000  0.52870000  0.00000000  1.0
  C  C150  1  0.63498000  0.72685000  0.50000000  1.0
  C  C151  1  0.60800000  0.02870000  0.50000000  1.0
  C  C152  1  0.86502000  0.77315000  0.00000000  1.0
  C  C153  1  0.89200000  0.47130000  0.00000000  1.0
  C  C154  1  0.36502000  0.27315000  0.50000000  1.0
  C  C155  1  0.39200000  0.97130000  0.50000000  1.0
  C  C156  1  0.77315000  0.13498000  0.00000000  1.0
  C  C157  1  0.47130000  0.10800000  0.00000000  1.0
  C  C158  1  0.27315000  0.63498000  0.50000000  1.0
  C  C159  1  0.97130000  0.60800000  0.50000000  1.0
  C  C160  1  0.22685000  0.86502000  0.00000000  1.0
  C  C161  1  0.52870000  0.89200000  0.00000000  1.0
  C  C162  1  0.72685000  0.36502000  0.50000000  1.0
  C  C163  1  0.02870000  0.39200000  0.50000000  1.0
  C  C164  1  0.86502000  0.22685000  0.50000000  1.0
  C  C165  1  0.89200000  0.52870000  0.50000000  1.0
  C  C166  1  0.36502000  0.72685000  0.00000000  1.0
  C  C167  1  0.39200000  0.02870000  0.00000000  1.0
  C  C168  1  0.13498000  0.77315000  0.50000000  1.0
  C  C169  1  0.10800000  0.47130000  0.50000000  1.0
  C  C170  1  0.63498000  0.27315000  0.00000000  1.0
  C  C171  1  0.60800000  0.97130000  0.00000000  1.0
  C  C172  1  0.22685000  0.13498000  0.50000000  1.0
  C  C173  1  0.52870000  0.10800000  0.50000000  1.0
  C  C174  1  0.72685000  0.63498000  0.00000000  1.0
  C  C175  1  0.02870000  0.60800000  0.00000000  1.0
  C  C176  1  0.77315000  0.86502000  0.50000000  1.0
  C  C177  1  0.47130000  0.89200000  0.50000000  1.0
  C  C178  1  0.27315000  0.36502000  0.00000000  1.0
  C  C179  1  0.97130000  0.39200000  0.00000000  1.0
  C  C180  1  0.00000000  0.00000000  0.21780000  1.0
  C  C181  1  0.50000000  0.50000000  0.71780000  1.0
  C  C182  1  0.00000000  0.00000000  0.28220000  1.0
  C  C183  1  0.50000000  0.50000000  0.78220000  1.0
  C  C184  1  0.00000000  0.00000000  0.78220000  1.0
  C  C185  1  0.50000000  0.50000000  0.28220000  1.0
  C  C186  1  0.00000000  0.00000000  0.71780000  1.0
  C  C187  1  0.50000000  0.50000000  0.21780000  1.0
  C  C188  1  0.16501000  0.33499000  0.00000000  1.0
  C  C189  1  0.08095000  0.41905000  0.00000000  1.0
  C  C190  1  0.83499000  0.66501000  0.00000000  1.0
  C  C191  1  0.91905000  0.58095000  0.00000000  1.0
  C  C192  1  0.33499000  0.16501000  0.50000000  1.0
  C  C193  1  0.41905000  0.08095000  0.50000000  1.0
  C  C194  1  0.66501000  0.16501000  0.00000000  1.0
  C  C195  1  0.58095000  0.08095000  0.00000000  1.0
  C  C196  1  0.33499000  0.83499000  0.00000000  1.0
  C  C197  1  0.41905000  0.91905000  0.00000000  1.0
  C  C198  1  0.83499000  0.33499000  0.50000000  1.0
  C  C199  1  0.91905000  0.41905000  0.50000000  1.0
  C  C200  1  0.16501000  0.66501000  0.50000000  1.0
  C  C201  1  0.08095000  0.58095000  0.50000000  1.0
  C  C202  1  0.66501000  0.83499000  0.50000000  1.0
  C  C203  1  0.58095000  0.91905000  0.50000000  1.0
  N  N204  1  0.10078000  0.14069000  0.00000000  1.0
  N  N205  1  0.60078000  0.64069000  0.50000000  1.0
  N  N206  1  0.89922000  0.85931000  0.00000000  1.0
  N  N207  1  0.39922000  0.35931000  0.50000000  1.0
  N  N208  1  0.85931000  0.10078000  0.00000000  1.0
  N  N209  1  0.35931000  0.60078000  0.50000000  1.0
  N  N210  1  0.14069000  0.89922000  0.00000000  1.0
  N  N211  1  0.64069000  0.39922000  0.50000000  1.0
  N  N212  1  0.89922000  0.14069000  0.50000000  1.0
  N  N213  1  0.39922000  0.64069000  0.00000000  1.0
  N  N214  1  0.10078000  0.85931000  0.50000000  1.0
  N  N215  1  0.60078000  0.35931000  0.00000000  1.0
  N  N216  1  0.14069000  0.10078000  0.50000000  1.0
  N  N217  1  0.64069000  0.60078000  0.00000000  1.0
  N  N218  1  0.85931000  0.89922000  0.50000000  1.0
  N  N219  1  0.35931000  0.39922000  0.00000000  1.0
  N  N220  1  0.00000000  0.00000000  0.09559000  1.0
  N  N221  1  0.50000000  0.50000000  0.59559000  1.0
  N  N222  1  0.00000000  0.00000000  0.40441000  1.0
  N  N223  1  0.50000000  0.50000000  0.90441000  1.0
  N  N224  1  0.00000000  0.00000000  0.90441000  1.0
  N  N225  1  0.50000000  0.50000000  0.40441000  1.0
  N  N226  1  0.00000000  0.00000000  0.59559000  1.0
  N  N227  1  0.50000000  0.50000000  0.09559000  1.0
