# generated using pymatgen
data_InH4(C3O2)4
_symmetry_space_group_name_H-M   'P 1'
_cell_length_a   20.40310000
_cell_length_b   20.40310000
_cell_length_c   20.40310000
_cell_angle_alpha   90.00000000
_cell_angle_beta   90.00000000
_cell_angle_gamma   90.00000000
_symmetry_Int_Tables_number   1
_chemical_formula_structural   InH4(C3O2)4
_chemical_formula_sum   'In12 H48 C144 O96'
_cell_volume   8493.53487616
_cell_formula_units_Z   12
loop_
 _symmetry_equiv_pos_site_id
 _symmetry_equiv_pos_as_xyz
  1  'x, y, z'
loop_
 _atom_site_type_symbol
 _atom_site_label
 _atom_site_symmetry_multiplicity
 _atom_site_fract_x
 _atom_site_fract_y
 _atom_site_fract_z
 _atom_site_occupancy
  In  In0  1  0.62500000  0.00000000  0.75000000  1.0
  In  In1  1  0.87500000  0.00000000  0.25000000  1.0
  In  In2  1  0.37500000  0.50000000  0.75000000  1.0
  In  In3  1  0.12500000  0.50000000  0.25000000  1.0
  In  In4  1  0.75000000  0.62500000  0.00000000  1.0
  In  In5  1  0.25000000  0.87500000  0.00000000  1.0
  In  In6  1  0.75000000  0.37500000  0.50000000  1.0
  In  In7  1  0.25000000  0.12500000  0.50000000  1.0
  In  In8  1  0.00000000  0.75000000  0.62500000  1.0
  In  In9  1  0.00000000  0.25000000  0.87500000  1.0
  In  In10  1  0.50000000  0.75000000  0.37500000  1.0
  In  In11  1  0.50000000  0.25000000  0.12500000  1.0
  H  H12  1  0.43540000  0.04670000  0.60910000  1.0
  H  H13  1  0.93540000  0.54670000  0.10910000  1.0
  H  H14  1  0.06460000  0.95330000  0.10910000  1.0
  H  H15  1  0.56460000  0.45330000  0.60910000  1.0
  H  H16  1  0.56460000  0.54670000  0.89090000  1.0
  H  H17  1  0.06460000  0.04670000  0.39090000  1.0
  H  H18  1  0.93540000  0.45330000  0.39090000  1.0
  H  H19  1  0.43540000  0.95330000  0.89090000  1.0
  H  H20  1  0.60910000  0.43540000  0.04670000  1.0
  H  H21  1  0.10910000  0.93540000  0.54670000  1.0
  H  H22  1  0.10910000  0.06460000  0.95330000  1.0
  H  H23  1  0.60910000  0.56460000  0.45330000  1.0
  H  H24  1  0.89090000  0.56460000  0.54670000  1.0
  H  H25  1  0.39090000  0.06460000  0.04670000  1.0
  H  H26  1  0.39090000  0.93540000  0.45330000  1.0
  H  H27  1  0.89090000  0.43540000  0.95330000  1.0
  H  H28  1  0.04670000  0.60910000  0.43540000  1.0
  H  H29  1  0.54670000  0.10910000  0.93540000  1.0
  H  H30  1  0.95330000  0.10910000  0.06460000  1.0
  H  H31  1  0.45330000  0.60910000  0.56460000  1.0
  H  H32  1  0.54670000  0.89090000  0.56460000  1.0
  H  H33  1  0.04670000  0.39090000  0.06460000  1.0
  H  H34  1  0.45330000  0.39090000  0.93540000  1.0
  H  H35  1  0.95330000  0.89090000  0.43540000  1.0
  H  H36  1  0.29670000  0.68540000  0.85910000  1.0
  H  H37  1  0.79670000  0.18540000  0.35910000  1.0
  H  H38  1  0.20330000  0.31460000  0.35910000  1.0
  H  H39  1  0.70330000  0.81460000  0.85910000  1.0
  H  H40  1  0.79670000  0.81460000  0.14090000  1.0
  H  H41  1  0.29670000  0.31460000  0.64090000  1.0
  H  H42  1  0.70330000  0.18540000  0.64090000  1.0
  H  H43  1  0.20330000  0.68540000  0.14090000  1.0
  H  H44  1  0.68540000  0.85910000  0.29670000  1.0
  H  H45  1  0.18540000  0.35910000  0.79670000  1.0
  H  H46  1  0.31460000  0.35910000  0.20330000  1.0
  H  H47  1  0.81460000  0.85910000  0.70330000  1.0
  H  H48  1  0.81460000  0.14090000  0.79670000  1.0
  H  H49  1  0.31460000  0.64090000  0.29670000  1.0
  H  H50  1  0.18540000  0.64090000  0.70330000  1.0
  H  H51  1  0.68540000  0.14090000  0.20330000  1.0
  H  H52  1  0.85910000  0.29670000  0.68540000  1.0
  H  H53  1  0.35910000  0.79670000  0.18540000  1.0
  H  H54  1  0.35910000  0.20330000  0.31460000  1.0
  H  H55  1  0.85910000  0.70330000  0.81460000  1.0
  H  H56  1  0.14090000  0.79670000  0.81460000  1.0
  H  H57  1  0.64090000  0.29670000  0.31460000  1.0
  H  H58  1  0.64090000  0.70330000  0.18540000  1.0
  H  H59  1  0.14090000  0.20330000  0.68540000  1.0
  C  C60  1  0.53930000  0.98520000  0.65480000  1.0
  C  C61  1  0.49550000  0.96910000  0.59830000  1.0
  C  C62  1  0.44310000  0.00970000  0.58360000  1.0
  C  C63  1  0.03930000  0.48520000  0.15480000  1.0
  C  C64  1  0.99550000  0.46910000  0.09830000  1.0
  C  C65  1  0.94310000  0.50970000  0.08360000  1.0
  C  C66  1  0.96070000  0.01480000  0.15480000  1.0
  C  C67  1  0.00450000  0.03090000  0.09830000  1.0
  C  C68  1  0.05690000  0.99030000  0.08360000  1.0
  C  C69  1  0.46070000  0.51480000  0.65480000  1.0
  C  C70  1  0.50450000  0.53090000  0.59830000  1.0
  C  C71  1  0.55690000  0.49030000  0.58360000  1.0
  C  C72  1  0.46070000  0.48520000  0.84520000  1.0
  C  C73  1  0.50450000  0.46910000  0.90170000  1.0
  C  C74  1  0.55690000  0.50970000  0.91640000  1.0
  C  C75  1  0.96070000  0.98520000  0.34520000  1.0
  C  C76  1  0.00450000  0.96910000  0.40170000  1.0
  C  C77  1  0.05690000  0.00970000  0.41640000  1.0
  C  C78  1  0.03930000  0.51480000  0.34520000  1.0
  C  C79  1  0.99550000  0.53090000  0.40170000  1.0
  C  C80  1  0.94310000  0.49030000  0.41640000  1.0
  C  C81  1  0.53930000  0.01480000  0.84520000  1.0
  C  C82  1  0.49550000  0.03090000  0.90170000  1.0
  C  C83  1  0.44310000  0.99030000  0.91640000  1.0
  C  C84  1  0.65480000  0.53930000  0.98520000  1.0
  C  C85  1  0.59830000  0.49550000  0.96910000  1.0
  C  C86  1  0.58360000  0.44310000  0.00970000  1.0
  C  C87  1  0.15480000  0.03930000  0.48520000  1.0
  C  C88  1  0.09830000  0.99550000  0.46910000  1.0
  C  C89  1  0.08360000  0.94310000  0.50970000  1.0
  C  C90  1  0.15480000  0.96070000  0.01480000  1.0
  C  C91  1  0.09830000  0.00450000  0.03090000  1.0
  C  C92  1  0.08360000  0.05690000  0.99030000  1.0
  C  C93  1  0.65480000  0.46070000  0.51480000  1.0
  C  C94  1  0.59830000  0.50450000  0.53090000  1.0
  C  C95  1  0.58360000  0.55690000  0.49030000  1.0
  C  C96  1  0.84520000  0.46070000  0.48520000  1.0
  C  C97  1  0.90170000  0.50450000  0.46910000  1.0
  C  C98  1  0.91640000  0.55690000  0.50970000  1.0
  C  C99  1  0.34520000  0.96070000  0.98520000  1.0
  C  C100  1  0.40170000  0.00450000  0.96910000  1.0
  C  C101  1  0.41640000  0.05690000  0.00970000  1.0
  C  C102  1  0.34520000  0.03930000  0.51480000  1.0
  C  C103  1  0.40170000  0.99550000  0.53090000  1.0
  C  C104  1  0.41640000  0.94310000  0.49030000  1.0
  C  C105  1  0.84520000  0.53930000  0.01480000  1.0
  C  C106  1  0.90170000  0.49550000  0.03090000  1.0
  C  C107  1  0.91640000  0.44310000  0.99030000  1.0
  C  C108  1  0.98520000  0.65480000  0.53930000  1.0
  C  C109  1  0.96910000  0.59830000  0.49550000  1.0
  C  C110  1  0.00970000  0.58360000  0.44310000  1.0
  C  C111  1  0.48520000  0.15480000  0.03930000  1.0
  C  C112  1  0.46910000  0.09830000  0.99550000  1.0
  C  C113  1  0.50970000  0.08360000  0.94310000  1.0
  C  C114  1  0.01480000  0.15480000  0.96070000  1.0
  C  C115  1  0.03090000  0.09830000  0.00450000  1.0
  C  C116  1  0.99030000  0.08360000  0.05690000  1.0
  C  C117  1  0.51480000  0.65480000  0.46070000  1.0
  C  C118  1  0.53090000  0.59830000  0.50450000  1.0
  C  C119  1  0.49030000  0.58360000  0.55690000  1.0
  C  C120  1  0.48520000  0.84520000  0.46070000  1.0
  C  C121  1  0.46910000  0.90170000  0.50450000  1.0
  C  C122  1  0.50970000  0.91640000  0.55690000  1.0
  C  C123  1  0.98520000  0.34520000  0.96070000  1.0
  C  C124  1  0.96910000  0.40170000  0.00450000  1.0
  C  C125  1  0.00970000  0.41640000  0.05690000  1.0
  C  C126  1  0.51480000  0.34520000  0.03930000  1.0
  C  C127  1  0.53090000  0.40170000  0.99550000  1.0
  C  C128  1  0.49030000  0.41640000  0.94310000  1.0
  C  C129  1  0.01480000  0.84520000  0.53930000  1.0
  C  C130  1  0.03090000  0.90170000  0.49550000  1.0
  C  C131  1  0.99030000  0.91640000  0.44310000  1.0
  C  C132  1  0.23520000  0.78930000  0.90480000  1.0
  C  C133  1  0.21910000  0.74550000  0.84830000  1.0
  C  C134  1  0.25970000  0.69310000  0.83360000  1.0
  C  C135  1  0.73520000  0.28930000  0.40480000  1.0
  C  C136  1  0.71910000  0.24550000  0.34830000  1.0
  C  C137  1  0.75970000  0.19310000  0.33360000  1.0
  C  C138  1  0.26480000  0.21070000  0.40480000  1.0
  C  C139  1  0.28090000  0.25450000  0.34830000  1.0
  C  C140  1  0.24030000  0.30690000  0.33360000  1.0
  C  C141  1  0.76480000  0.71070000  0.90480000  1.0
  C  C142  1  0.78090000  0.75450000  0.84830000  1.0
  C  C143  1  0.74030000  0.80690000  0.83360000  1.0
  C  C144  1  0.73520000  0.71070000  0.09520000  1.0
  C  C145  1  0.71910000  0.75450000  0.15170000  1.0
  C  C146  1  0.75970000  0.80690000  0.16640000  1.0
  C  C147  1  0.23520000  0.21070000  0.59520000  1.0
  C  C148  1  0.21910000  0.25450000  0.65170000  1.0
  C  C149  1  0.25970000  0.30690000  0.66640000  1.0
  C  C150  1  0.76480000  0.28930000  0.59520000  1.0
  C  C151  1  0.78090000  0.24550000  0.65170000  1.0
  C  C152  1  0.74030000  0.19310000  0.66640000  1.0
  C  C153  1  0.26480000  0.78930000  0.09520000  1.0
  C  C154  1  0.28090000  0.74550000  0.15170000  1.0
  C  C155  1  0.24030000  0.69310000  0.16640000  1.0
  C  C156  1  0.78930000  0.90480000  0.23520000  1.0
  C  C157  1  0.74550000  0.84830000  0.21910000  1.0
  C  C158  1  0.69310000  0.83360000  0.25970000  1.0
  C  C159  1  0.28930000  0.40480000  0.73520000  1.0
  C  C160  1  0.24550000  0.34830000  0.71910000  1.0
  C  C161  1  0.19310000  0.33360000  0.75970000  1.0
  C  C162  1  0.21070000  0.40480000  0.26480000  1.0
  C  C163  1  0.25450000  0.34830000  0.28090000  1.0
  C  C164  1  0.30690000  0.33360000  0.24030000  1.0
  C  C165  1  0.71070000  0.90480000  0.76480000  1.0
  C  C166  1  0.75450000  0.84830000  0.78090000  1.0
  C  C167  1  0.80690000  0.83360000  0.74030000  1.0
  C  C168  1  0.71070000  0.09520000  0.73520000  1.0
  C  C169  1  0.75450000  0.15170000  0.71910000  1.0
  C  C170  1  0.80690000  0.16640000  0.75970000  1.0
  C  C171  1  0.21070000  0.59520000  0.23520000  1.0
  C  C172  1  0.25450000  0.65170000  0.21910000  1.0
  C  C173  1  0.30690000  0.66640000  0.25970000  1.0
  C  C174  1  0.28930000  0.59520000  0.76480000  1.0
  C  C175  1  0.24550000  0.65170000  0.78090000  1.0
  C  C176  1  0.19310000  0.66640000  0.74030000  1.0
  C  C177  1  0.78930000  0.09520000  0.26480000  1.0
  C  C178  1  0.74550000  0.15170000  0.28090000  1.0
  C  C179  1  0.69310000  0.16640000  0.24030000  1.0
  C  C180  1  0.90480000  0.23520000  0.78930000  1.0
  C  C181  1  0.84830000  0.21910000  0.74550000  1.0
  C  C182  1  0.83360000  0.25970000  0.69310000  1.0
  C  C183  1  0.40480000  0.73520000  0.28930000  1.0
  C  C184  1  0.34830000  0.71910000  0.24550000  1.0
  C  C185  1  0.33360000  0.75970000  0.19310000  1.0
  C  C186  1  0.40480000  0.26480000  0.21070000  1.0
  C  C187  1  0.34830000  0.28090000  0.25450000  1.0
  C  C188  1  0.33360000  0.24030000  0.30690000  1.0
  C  C189  1  0.90480000  0.76480000  0.71070000  1.0
  C  C190  1  0.84830000  0.78090000  0.75450000  1.0
  C  C191  1  0.83360000  0.74030000  0.80690000  1.0
  C  C192  1  0.09520000  0.73520000  0.71070000  1.0
  C  C193  1  0.15170000  0.71910000  0.75450000  1.0
  C  C194  1  0.16640000  0.75970000  0.80690000  1.0
  C  C195  1  0.59520000  0.23520000  0.21070000  1.0
  C  C196  1  0.65170000  0.21910000  0.25450000  1.0
  C  C197  1  0.66640000  0.25970000  0.30690000  1.0
  C  C198  1  0.59520000  0.76480000  0.28930000  1.0
  C  C199  1  0.65170000  0.78090000  0.24550000  1.0
  C  C200  1  0.66640000  0.74030000  0.19310000  1.0
  C  C201  1  0.09520000  0.26480000  0.78930000  1.0
  C  C202  1  0.15170000  0.28090000  0.74550000  1.0
  C  C203  1  0.16640000  0.24030000  0.69310000  1.0
  O  O204  1  0.58590000  0.94600000  0.66780000  1.0
  O  O205  1  0.53190000  0.03640000  0.68650000  1.0
  O  O206  1  0.08590000  0.44600000  0.16780000  1.0
  O  O207  1  0.03190000  0.53640000  0.18650000  1.0
  O  O208  1  0.91410000  0.05400000  0.16780000  1.0
  O  O209  1  0.96810000  0.96360000  0.18650000  1.0
  O  O210  1  0.41410000  0.55400000  0.66780000  1.0
  O  O211  1  0.46810000  0.46360000  0.68650000  1.0
  O  O212  1  0.41410000  0.44600000  0.83220000  1.0
  O  O213  1  0.46810000  0.53640000  0.81350000  1.0
  O  O214  1  0.91410000  0.94600000  0.33220000  1.0
  O  O215  1  0.96810000  0.03640000  0.31350000  1.0
  O  O216  1  0.08590000  0.55400000  0.33220000  1.0
  O  O217  1  0.03190000  0.46360000  0.31350000  1.0
  O  O218  1  0.58590000  0.05400000  0.83220000  1.0
  O  O219  1  0.53190000  0.96360000  0.81350000  1.0
  O  O220  1  0.66780000  0.58590000  0.94600000  1.0
  O  O221  1  0.68650000  0.53190000  0.03640000  1.0
  O  O222  1  0.16780000  0.08590000  0.44600000  1.0
  O  O223  1  0.18650000  0.03190000  0.53640000  1.0
  O  O224  1  0.16780000  0.91410000  0.05400000  1.0
  O  O225  1  0.18650000  0.96810000  0.96360000  1.0
  O  O226  1  0.66780000  0.41410000  0.55400000  1.0
  O  O227  1  0.68650000  0.46810000  0.46360000  1.0
  O  O228  1  0.83220000  0.41410000  0.44600000  1.0
  O  O229  1  0.81350000  0.46810000  0.53640000  1.0
  O  O230  1  0.33220000  0.91410000  0.94600000  1.0
  O  O231  1  0.31350000  0.96810000  0.03640000  1.0
  O  O232  1  0.33220000  0.08590000  0.55400000  1.0
  O  O233  1  0.31350000  0.03190000  0.46360000  1.0
  O  O234  1  0.83220000  0.58590000  0.05400000  1.0
  O  O235  1  0.81350000  0.53190000  0.96360000  1.0
  O  O236  1  0.94600000  0.66780000  0.58590000  1.0
  O  O237  1  0.03640000  0.68650000  0.53190000  1.0
  O  O238  1  0.44600000  0.16780000  0.08590000  1.0
  O  O239  1  0.53640000  0.18650000  0.03190000  1.0
  O  O240  1  0.05400000  0.16780000  0.91410000  1.0
  O  O241  1  0.96360000  0.18650000  0.96810000  1.0
  O  O242  1  0.55400000  0.66780000  0.41410000  1.0
  O  O243  1  0.46360000  0.68650000  0.46810000  1.0
  O  O244  1  0.44600000  0.83220000  0.41410000  1.0
  O  O245  1  0.53640000  0.81350000  0.46810000  1.0
  O  O246  1  0.94600000  0.33220000  0.91410000  1.0
  O  O247  1  0.03640000  0.31350000  0.96810000  1.0
  O  O248  1  0.55400000  0.33220000  0.08590000  1.0
  O  O249  1  0.46360000  0.31350000  0.03190000  1.0
  O  O250  1  0.05400000  0.83220000  0.58590000  1.0
  O  O251  1  0.96360000  0.81350000  0.53190000  1.0
  O  O252  1  0.19600000  0.83590000  0.91780000  1.0
  O  O253  1  0.28640000  0.78190000  0.93650000  1.0
  O  O254  1  0.69600000  0.33590000  0.41780000  1.0
  O  O255  1  0.78640000  0.28190000  0.43650000  1.0
  O  O256  1  0.30400000  0.16410000  0.41780000  1.0
  O  O257  1  0.21360000  0.21810000  0.43650000  1.0
  O  O258  1  0.80400000  0.66410000  0.91780000  1.0
  O  O259  1  0.71360000  0.71810000  0.93650000  1.0
  O  O260  1  0.69600000  0.66410000  0.08220000  1.0
  O  O261  1  0.78640000  0.71810000  0.06350000  1.0
  O  O262  1  0.19600000  0.16410000  0.58220000  1.0
  O  O263  1  0.28640000  0.21810000  0.56350000  1.0
  O  O264  1  0.80400000  0.33590000  0.58220000  1.0
  O  O265  1  0.71360000  0.28190000  0.56350000  1.0
  O  O266  1  0.30400000  0.83590000  0.08220000  1.0
  O  O267  1  0.21360000  0.78190000  0.06350000  1.0
  O  O268  1  0.83590000  0.91780000  0.19600000  1.0
  O  O269  1  0.78190000  0.93650000  0.28640000  1.0
  O  O270  1  0.33590000  0.41780000  0.69600000  1.0
  O  O271  1  0.28190000  0.43650000  0.78640000  1.0
  O  O272  1  0.16410000  0.41780000  0.30400000  1.0
  O  O273  1  0.21810000  0.43650000  0.21360000  1.0
  O  O274  1  0.66410000  0.91780000  0.80400000  1.0
  O  O275  1  0.71810000  0.93650000  0.71360000  1.0
  O  O276  1  0.66410000  0.08220000  0.69600000  1.0
  O  O277  1  0.71810000  0.06350000  0.78640000  1.0
  O  O278  1  0.16410000  0.58220000  0.19600000  1.0
  O  O279  1  0.21810000  0.56350000  0.28640000  1.0
  O  O280  1  0.33590000  0.58220000  0.80400000  1.0
  O  O281  1  0.28190000  0.56350000  0.71360000  1.0
  O  O282  1  0.83590000  0.08220000  0.30400000  1.0
  O  O283  1  0.78190000  0.06350000  0.21360000  1.0
  O  O284  1  0.91780000  0.19600000  0.83590000  1.0
  O  O285  1  0.93650000  0.28640000  0.78190000  1.0
  O  O286  1  0.41780000  0.69600000  0.33590000  1.0
  O  O287  1  0.43650000  0.78640000  0.28190000  1.0
  O  O288  1  0.41780000  0.30400000  0.16410000  1.0
  O  O289  1  0.43650000  0.21360000  0.21810000  1.0
  O  O290  1  0.91780000  0.80400000  0.66410000  1.0
  O  O291  1  0.93650000  0.71360000  0.71810000  1.0
  O  O292  1  0.08220000  0.69600000  0.66410000  1.0
  O  O293  1  0.06350000  0.78640000  0.71810000  1.0
  O  O294  1  0.58220000  0.19600000  0.16410000  1.0
  O  O295  1  0.56350000  0.28640000  0.21810000  1.0
  O  O296  1  0.58220000  0.80400000  0.33590000  1.0
  O  O297  1  0.56350000  0.71360000  0.28190000  1.0
  O  O298  1  0.08220000  0.30400000  0.83590000  1.0
  O  O299  1  0.06350000  0.21360000  0.78190000  1.0
